geometry optimzed in LAMMPS
_audit_creation_date              2020-12-01 
_audit_creation_method            'lammps2cif' 
_symmetry_space_group_name_H-M    'P1' 
_symmetry_Int_Tables_number       1 
_symmetry_cell_setting            triclinic 
loop_ 
_symmetry_equiv_pos_as_xyz 
  x,y,z 
_cell_length_a                    38.5687757 
_cell_length_b                    38.56809835068106 
_cell_length_c                    36.31156627791848 
_cell_angle_alpha                 90.00587539781692 
_cell_angle_beta                  89.9883712098388 
_cell_angle_gamma                 120.00508463337928 
loop_ 
_atom_site_label 
_atom_site_type_symbol 
_atom_site_fract_x 
_atom_site_fract_y 
_atom_site_fract_z 
_atom_site_charge 
O1          O  0.19345229  0.14876204  0.09147485    -0.72200
O2          O  0.29170109  0.15369261  0.06413196    -0.72400
O3          O  0.24537384  0.12826230  0.12266961    -0.72300
O4          O  0.23834347  0.16938014  0.03214942    -0.72300
O5          O  0.28423940  0.22958377  0.04628024    -0.72300
O6          O  0.26769312  0.18717943  0.14681945    -0.72300
O7          O  0.32303885  0.21019064  0.09391657    -0.72200
O8          O  0.22781159  0.21302517  0.10044230    -0.72400
V9          V  0.24259833  0.15104980  0.07790386     1.35200
V10         V  0.27474079  0.20931593  0.09706899     1.35200
C11         C  0.19428920  0.18172012  0.09738428     0.77000
C12         C  0.32407984  0.18301221  0.07616677     0.77100
C13         C  0.25741338  0.15000405  0.15060756     0.77000
C14         C  0.26481269  0.20343172  0.02157869     0.76900
O15         O  0.29064921  0.14877155  0.91205139    -0.72200
O16         O  0.19733094  0.15370263  0.93939113    -0.72400
O17         O  0.21822948  0.12827824  0.88085538    -0.72300
O18         O  0.26637560  0.16938375  0.97137873    -0.72300
O19         O  0.28069382  0.22958952  0.95725426    -0.72300
O20         O  0.25483966  0.18719786  0.85671160    -0.72300
O21         O  0.22250440  0.21020439  0.90961211    -0.72200
O22         O  0.32056424  0.21303611  0.90309121    -0.72400
V23         V  0.24379167  0.15105987  0.92562248     1.35200
V24         V  0.26992671  0.20932834  0.90646342     1.35200
C25         C  0.32277590  0.18172902  0.90614278     0.77000
C26         C  0.19427684  0.18302238  0.92735593     0.77100
C27         C  0.22793894  0.15002381  0.85292081     0.77000
C28         C  0.27396247  0.20343471  0.98195337     0.76900
O29         O  0.15845794  0.21737755  0.09139546    -0.72200
O30         O  0.06022897  0.21248094  0.06406405    -0.72400
O31         O  0.10659510  0.23797245  0.12256753    -0.72300
O32         O  0.11353683  0.19668843  0.03207401    -0.72300
O33         O  0.06756425  0.13654761  0.04629222    -0.72300
O34         O  0.08430973  0.17909499  0.14679134    -0.72300
O35         O  0.02889547  0.15606099  0.09397156    -0.72200
O36         O  0.12406985  0.15312077  0.10039248    -0.72400
V37         V  0.10932681  0.21510879  0.07782041     1.35200
V38         V  0.07716538  0.15688034  0.09706280     1.35200
C39         C  0.15760368  0.18441913  0.09734695     0.77000
C40         C  0.02785366  0.18320608  0.07616906     0.77100
C41         C  0.09460565  0.21627962  0.15054092     0.77000
C42         C  0.08698322  0.16265384  0.02154971     0.76900
O43         O  0.06093423  0.21738559  0.91212401    -0.72200
O44         O  0.15426492  0.21248852  0.93945469    -0.72400
O45         O  0.13339573  0.23798657  0.88095298    -0.72300
O46         O  0.08516001  0.19668969  0.97144142    -0.72300
O47         O  0.07099193  0.13655282  0.95721692    -0.72300
O48         O  0.09679408  0.17911315  0.85672192    -0.72300
O49         O  0.12917742  0.15607616  0.90953561    -0.72200
O50         O  0.03105739  0.15312935  0.90312385    -0.72400
V51         V  0.10779584  0.21511680  0.92569782     1.35200
V52         V  0.08172382  0.15689161  0.90644842     1.35200
C53         C  0.02882690  0.18442809  0.90617377     0.77000
C54         C  0.15736304  0.18321633  0.92734570     0.77100
C55         C  0.12368755  0.21629918  0.85297691     0.77000
C56         C  0.07767828  0.16265499  0.98196266     0.76900
O57         O  0.21011450  0.06835729  0.75807696    -0.72200
O58         O  0.20523319  0.16170160  0.73074370    -0.72400
O59         O  0.23066947  0.14079685  0.78925453    -0.72300
O60         O  0.18948757  0.09262031  0.69874292    -0.72300
O61         O  0.12932586  0.07841710  0.71291110    -0.72300
O62         O  0.17176926  0.10417876  0.81343934    -0.72300
O63         O  0.14877924  0.13657735  0.76060565    -0.72200
O64         O  0.14584961  0.03846884  0.76703089    -0.72400
V65         V  0.20785354  0.11522499  0.74449795     1.35200
V66         V  0.14960465  0.08913018  0.76369750     1.35200
C67         C  0.17715270  0.03624453  0.76401172     0.77000
C68         C  0.17594479  0.16478501  0.74283309     0.77100
C69         C  0.20895068  0.13107068  0.81721165     0.77000
C70         C  0.15546065  0.08512219  0.68818934     0.76900
O71         O  0.21026712  0.16586611  0.57876218    -0.72200
O72         O  0.20533325  0.06762269  0.60610134    -0.72400
O73         O  0.23085719  0.11399216  0.54758748    -0.72300
O74         O  0.18954639  0.12093294  0.63807169    -0.72300
O75         O  0.12939901  0.07499104  0.62384491    -0.72300
O76         O  0.17198866  0.09170056  0.52335485    -0.72300
O77         O  0.14891587  0.03629324  0.57620086    -0.72200
O78         O  0.14601773  0.13149167  0.56973425    -0.72400
V79         V  0.20797928  0.11672487  0.59233229     1.35200
V80         V  0.14975690  0.08457552  0.57308054     1.35200
C81         C  0.17731308  0.16502010  0.57281661     0.77000
C82         C  0.17605119  0.03524804  0.59401323     0.77100
C83         C  0.20917268  0.10198909  0.51961208     0.77000
C84         C  0.15549628  0.09440199  0.64859131     0.76900
O85         O  0.14150093  0.29807184  0.75813564    -0.72200
O86         O  0.14644798  0.20476696  0.73079454    -0.72400
O87         O  0.12096202  0.22562772  0.78932215    -0.72300
O88         O  0.16218135  0.27383734  0.69882290    -0.72300
O89         O  0.22235960  0.28811809  0.71300368    -0.72300
O90         O  0.17985230  0.26222420  0.81351339    -0.72300
O91         O  0.20290494  0.22990317  0.76063335    -0.72200
O92         O  0.20575515  0.32797608  0.76714005    -0.72400
V93         V  0.14379682  0.25122002  0.74456768     1.35200
V94         V  0.20203959  0.27733272  0.76377700     1.35200
C95         C  0.17445301  0.33019294  0.76405892     0.77000
C96         C  0.17575136  0.20169890  0.74285021     0.77100
C97         C  0.14267472  0.23532065  0.81727764     0.77000
C98         C  0.19623762  0.28140612  0.68827944     0.76900
O99         O  0.14165213  0.20085891  0.57875104    -0.72200
O100        O  0.14654471  0.29909441  0.60608814    -0.72400
O101        O  0.12114766  0.25277030  0.54755936    -0.72300
O102        O  0.16223660  0.24573773  0.63808964    -0.72300
O103        O  0.22243184  0.29166586  0.62396754    -0.72300
O104        O  0.18007152  0.27508490  0.52341837    -0.72300
O105        O  0.20304327  0.33043755  0.57629651    -0.72200
O106        O  0.20592048  0.23523390  0.56981455    -0.72400
V107        V  0.14392003  0.24999512  0.59232797     1.35200
V108        V  0.20219021  0.28215129  0.57317225     1.35200
C109        C  0.17461339  0.20170527  0.57283531     0.77000
C110        C  0.17585715  0.33147349  0.59403714     0.77100
C111        C  0.14289662  0.26479683  0.51962395     0.77000
C112        C  0.19627226  0.27223090  0.64866595     0.76900
O113        O  0.15857133  0.29804429  0.24538072    -0.72200
O114        O  0.06031927  0.20473612  0.27272787    -0.72400
O115        O  0.10665933  0.22560199  0.21419426    -0.72300
O116        O  0.11366478  0.27380313  0.30469875    -0.72300
O117        O  0.06776497  0.28808227  0.29053057    -0.72300
O118        O  0.08436137  0.26219457  0.19001193    -0.72300
O119        O  0.02899354  0.22987058  0.24289972    -0.72200
O120        O  0.12421789  0.32794301  0.23638705    -0.72400
V121        V  0.10942406  0.25119050  0.25895165     1.35200
V122        V  0.07728988  0.27729956  0.23975283     1.35200
C123        C  0.15773825  0.33016418  0.23946230     0.77000
C124        C  0.02794657  0.20166799  0.26067987     0.77100
C125        C  0.09463759  0.23529512  0.18624259     0.77000
C126        C  0.08718074  0.28137167  0.31524995     0.76900
O127        O  0.06124753  0.20084659  0.42478308    -0.72200
O128        O  0.15458694  0.29908714  0.39744353    -0.72400
O129        O  0.13366586  0.25276825  0.45597422    -0.72300
O130        O  0.08553876  0.24572231  0.36544372    -0.72300
O131        O  0.07125908  0.29163767  0.37956482    -0.72300
O132        O  0.09705319  0.27507605  0.48011409    -0.72300
O133        O  0.12942510  0.33042332  0.42723126    -0.72200
O134        O  0.03134909  0.23521230  0.43372246    -0.72400
V135        V  0.10811485  0.24998578  0.41120556     1.35200
V136        V  0.08199466  0.28213320  0.43036033     1.35200
C137        C  0.02913124  0.20168845  0.43069847     0.77000
C138        C  0.15764901  0.33146357  0.40949098     0.77100
C139        C  0.12394355  0.26479367  0.48390929     0.77000
C140        C  0.07798589  0.27220536  0.35486687     0.76900
O141        O  0.19357067  0.06832259  0.24545270    -0.72200
O142        O  0.29179925  0.16166948  0.27278648    -0.72400
O143        O  0.24545332  0.14076609  0.21427583    -0.72300
O144        O  0.23846812  0.09258668  0.30478746    -0.72300
O145        O  0.28442782  0.07839168  0.29060864    -0.72300
O146        O  0.26773826  0.10415811  0.19008398    -0.72300
O147        O  0.32313023  0.13655381  0.24291789    -0.72200
O148        O  0.22795100  0.03844389  0.23648847    -0.72400
V149        V  0.24270112  0.11519231  0.25903191     1.35200
V150        V  0.27485735  0.08910647  0.23982420     1.35200
C151        C  0.19442223  0.03621517  0.23951146     0.77000
C152        C  0.32417314  0.16475654  0.26069549     0.77100
C153        C  0.25744711  0.13104640  0.18631600     0.77000
C154        C  0.26500232  0.08509438  0.31533445     0.76900
O155        O  0.29097214  0.16585019  0.42476598    -0.72200
O156        O  0.19765471  0.06760921  0.39742525    -0.72400
O157        O  0.21850531  0.11397829  0.45593898    -0.72300
O158        O  0.26675479  0.12091943  0.36545238    -0.72300
O159        O  0.28094748  0.07497294  0.37967819    -0.72300
O160        O  0.25508752  0.09169697  0.48017264    -0.72300
O161        O  0.22273985  0.03628443  0.42733208    -0.72200
O162        O  0.32084594  0.13147742  0.43378585    -0.72400
V163        V  0.24411472  0.11671104  0.41119388     1.35200
V164        V  0.27018560  0.08456390  0.43044515     1.35200
C165        C  0.32307889  0.16500387  0.43071046     0.77000
C166        C  0.19456092  0.03523748  0.40951595     0.77100
C167        C  0.22819296  0.10198457  0.48391582     0.77000
C168        C  0.27426192  0.09438308  0.35493206     0.76900
O169        O  0.19345242  0.48209544  0.09147487    -0.72200
O170        O  0.29170110  0.48702599  0.06413199    -0.72400
O171        O  0.24537375  0.46159561  0.12266963    -0.72300
O172        O  0.23834340  0.50271359  0.03214939    -0.72300
O173        O  0.28423945  0.56291712  0.04628023    -0.72300
O174        O  0.26769309  0.52051269  0.14681953    -0.72300
O175        O  0.32303878  0.54352408  0.09391665    -0.72200
O176        O  0.22781201  0.54635867  0.10044230    -0.72400
V177        V  0.24259832  0.48438317  0.07790386     1.35200
V178        V  0.27474084  0.54264927  0.09706901     1.35200
C179        C  0.19428860  0.51505311  0.09738429     0.77000
C180        C  0.32408030  0.51634512  0.07616654     0.77100
C181        C  0.25741351  0.48333759  0.15060755     0.77000
C182        C  0.26481261  0.53676501  0.02157875     0.76900
O183        O  0.29064952  0.48210502  0.91205135    -0.72200
O184        O  0.19733100  0.48703575  0.93939114    -0.72400
O185        O  0.21822946  0.46161164  0.88085538    -0.72300
O186        O  0.26637556  0.50271709  0.97137876    -0.72300
O187        O  0.28069374  0.56292287  0.95725424    -0.72300
O188        O  0.25483977  0.52053138  0.85671167    -0.72300
O189        O  0.22250435  0.54353766  0.90961219    -0.72200
O190        O  0.32056438  0.54636942  0.90309117    -0.72400
V191        V  0.24379155  0.48439316  0.92562247     1.35200
V192        V  0.26992661  0.54266169  0.90646338     1.35200
C193        C  0.32277498  0.51506215  0.90614289     0.77000
C194        C  0.19427652  0.51635635  0.92735573     0.77100
C195        C  0.22793857  0.48335680  0.85292076     0.77000
C196        C  0.27396245  0.53676791  0.98195336     0.76900
O197        O  0.15845807  0.55071092  0.09139553    -0.72200
O198        O  0.06022890  0.54581424  0.06406400    -0.72400
O199        O  0.10659516  0.57130577  0.12256747    -0.72300
O200        O  0.11353693  0.53002176  0.03207401    -0.72300
O201        O  0.06756430  0.46988095  0.04629222    -0.72300
O202        O  0.08430979  0.51242829  0.14679134    -0.72300
O203        O  0.02889564  0.48939445  0.09397165    -0.72200
O204        O  0.12407031  0.48645426  0.10039241    -0.72400
V205        V  0.10932686  0.54844209  0.07782037     1.35200
V206        V  0.07716551  0.49021368  0.09706282     1.35200
C207        C  0.15760304  0.51775209  0.09734700     0.77000
C208        C  0.02785439  0.51653968  0.07616900     0.77100
C209        C  0.09460561  0.54961301  0.15054103     0.77000
C210        C  0.08698307  0.49598702  0.02154970     0.76900
O211        O  0.06093424  0.55071892  0.91212392    -0.72200
O212        O  0.15426476  0.54582174  0.93945470    -0.72400
O213        O  0.13339582  0.57131991  0.88095299    -0.72300
O214        O  0.08516007  0.53002309  0.97144139    -0.72300
O215        O  0.07099208  0.46988619  0.95721691    -0.72300
O216        O  0.09679418  0.51244655  0.85672185    -0.72300
O217        O  0.12917727  0.48940936  0.90953549    -0.72200
O218        O  0.03105740  0.48646267  0.90312387    -0.72400
V219        V  0.10779586  0.54845015  0.92569786     1.35200
V220        V  0.08172393  0.49022493  0.90644843     1.35200
C221        C  0.02882677  0.51776135  0.90617376     0.77000
C222        C  0.15736376  0.51655006  0.92734605     0.77100
C223        C  0.12368741  0.54963235  0.85297701     0.77000
C224        C  0.07767832  0.49598827  0.98196271     0.76900
O225        O  0.21011468  0.40169061  0.75807693    -0.72200
O226        O  0.20523334  0.49503493  0.73074370    -0.72400
O227        O  0.23066964  0.47413019  0.78925456    -0.72300
O228        O  0.18948762  0.42595365  0.69874293    -0.72300
O229        O  0.12932588  0.41175041  0.71291112    -0.72300
O230        O  0.17176948  0.43751215  0.81343940    -0.72300
O231        O  0.14877935  0.46991071  0.76060560    -0.72200
O232        O  0.14584988  0.37180214  0.76703091    -0.72400
V233        V  0.20785360  0.44855827  0.74449795     1.35200
V234        V  0.14960469  0.42246355  0.76369748     1.35200
C235        C  0.17715214  0.36957776  0.76401181     0.77000
C236        C  0.17594481  0.49811834  0.74283310     0.77100
C237        C  0.20895026  0.46440375  0.81721159     0.77000
C238        C  0.15546074  0.41845550  0.68818931     0.76900
O239        O  0.21026717  0.49919957  0.57876220    -0.72200
O240        O  0.20533321  0.40095608  0.60610125    -0.72400
O241        O  0.23085728  0.44732549  0.54758741    -0.72300
O242        O  0.18954648  0.45426627  0.63807176    -0.72300
O243        O  0.12939908  0.40832446  0.62384491    -0.72300
O244        O  0.17198878  0.42503403  0.52335478    -0.72300
O245        O  0.14891570  0.36962679  0.57620074    -0.72200
O246        O  0.14601785  0.46482521  0.56973425    -0.72400
V247        V  0.20797933  0.45005819  0.59233226     1.35200
V248        V  0.14975688  0.41790893  0.57308054     1.35200
C249        C  0.17731330  0.49835336  0.57281668     0.77000
C250        C  0.17605185  0.36858131  0.59401357     0.77100
C251        C  0.20917261  0.43532245  0.51961206     0.77000
C252        C  0.15549675  0.42773558  0.64859128     0.76900
O253        O  0.14150074  0.63140506  0.75813561    -0.72200
O254        O  0.14644815  0.53810027  0.73079458    -0.72400
O255        O  0.12096211  0.55896102  0.78932210    -0.72300
O256        O  0.16218137  0.60717065  0.69882292    -0.72300
O257        O  0.22235964  0.62145139  0.71300364    -0.72300
O258        O  0.17985238  0.59555757  0.81351339    -0.72300
O259        O  0.20290505  0.56323650  0.76063340    -0.72200
O260        O  0.20575491  0.66130950  0.76714000    -0.72400
V261        V  0.14379683  0.58455335  0.74456764     1.35200
V262        V  0.20203958  0.61066601  0.76377699     1.35200
C263        C  0.17445375  0.66352633  0.76405899     0.77000
C264        C  0.17575119  0.53503225  0.74285012     0.77100
C265        C  0.14267470  0.56865396  0.81727759     0.77000
C266        C  0.19623790  0.61473948  0.68827954     0.76900
O267        O  0.14165199  0.53419226  0.57875103    -0.72200
O268        O  0.14654472  0.63242778  0.60608807    -0.72400
O269        O  0.12114773  0.58610368  0.54755934    -0.72300
O270        O  0.16223657  0.57907107  0.63808967    -0.72300
O271        O  0.22243178  0.62499920  0.62396750    -0.72300
O272        O  0.18007173  0.60841827  0.52341848    -0.72300
O273        O  0.20304337  0.66377075  0.57629643    -0.72200
O274        O  0.20592033  0.56856723  0.56981452    -0.72400
V275        V  0.14391999  0.58332851  0.59232799     1.35200
V276        V  0.20219016  0.61548467  0.57317224     1.35200
C277        C  0.17461353  0.53503877  0.57283529     0.77000
C278        C  0.17585658  0.66480681  0.59403754     0.77100
C279        C  0.14289589  0.59812991  0.51962382     0.77000
C280        C  0.19627200  0.60556409  0.64866588     0.76900
O281        O  0.15857145  0.63137757  0.24538075    -0.72200
O282        O  0.06031972  0.53806969  0.27272802    -0.72400
O283        O  0.10665939  0.55893541  0.21419427    -0.72300
O284        O  0.11366490  0.60713662  0.30469875    -0.72300
O285        O  0.06776498  0.62141562  0.29053065    -0.72300
O286        O  0.08436140  0.59552796  0.19001191    -0.72300
O287        O  0.02899376  0.56320397  0.24289974    -0.72200
O288        O  0.12421818  0.66127644  0.23638704    -0.72400
V289        V  0.10942409  0.58452393  0.25895169     1.35200
V290        V  0.07728986  0.61063293  0.23975276     1.35200
C291        C  0.15773786  0.66349789  0.23946221     0.77000
C292        C  0.02794574  0.53500121  0.26067958     0.77100
C293        C  0.09463761  0.56862842  0.18624253     0.77000
C294        C  0.08718038  0.61470515  0.31524988     0.76900
O295        O  0.06124818  0.53418029  0.42478306    -0.72200
O296        O  0.15458702  0.63242069  0.39744345    -0.72400
O297        O  0.13366603  0.58610173  0.45597399    -0.72300
O298        O  0.08553898  0.57905569  0.36544378    -0.72300
O299        O  0.07125919  0.62497104  0.37956487    -0.72300
O300        O  0.09705319  0.60840939  0.48011397    -0.72300
O301        O  0.12942509  0.66375675  0.42723131    -0.72200
O302        O  0.03134943  0.56854596  0.43372245    -0.72400
V303        V  0.10811500  0.58331921  0.41120555     1.35200
V304        V  0.08199464  0.61546655  0.43036034     1.35200
C305        C  0.02913011  0.53502069  0.43069858     0.77000
C306        C  0.15764901  0.66479679  0.40949077     0.77100
C307        C  0.12394378  0.59812719  0.48390977     0.77000
C308        C  0.07798595  0.60553886  0.35486683     0.76900
O309        O  0.19357059  0.40165584  0.24545269    -0.72200
O310        O  0.29179965  0.49500295  0.27278649    -0.72400
O311        O  0.24545337  0.47409946  0.21427584    -0.72300
O312        O  0.23846814  0.42592004  0.30478751    -0.72300
O313        O  0.28442780  0.41172501  0.29060869    -0.72300
O314        O  0.26773821  0.43749137  0.19008403    -0.72300
O315        O  0.32313031  0.46988715  0.24291773    -0.72200
O316        O  0.22795086  0.37177713  0.23648848    -0.72400
V317        V  0.24270112  0.44852565  0.25903192     1.35200
V318        V  0.27485728  0.42243976  0.23982418     1.35200
C319        C  0.19442221  0.36954845  0.23951149     0.77000
C320        C  0.32417256  0.49808980  0.26069577     0.77100
C321        C  0.25744716  0.46437978  0.18631599     0.77000
C322        C  0.26500226  0.41842777  0.31533435     0.76900
O323        O  0.29097233  0.49918372  0.42476604    -0.72200
O324        O  0.19765498  0.40094270  0.39742530    -0.72400
O325        O  0.21850553  0.44731183  0.45593893    -0.72300
O326        O  0.26675492  0.45425306  0.36545253    -0.72300
O327        O  0.28094754  0.40830644  0.37967818    -0.72300
O328        O  0.25508761  0.42503032  0.48017257    -0.72300
O329        O  0.22274023  0.36961794  0.42733221    -0.72200
O330        O  0.32084607  0.46481094  0.43378586    -0.72400
V331        V  0.24411488  0.45004453  0.41119383     1.35200
V332        V  0.27018560  0.41789726  0.43044513     1.35200
C333        C  0.32307920  0.49833703  0.43071051     0.77000
C334        C  0.19456024  0.36857069  0.40951552     0.77100
C335        C  0.22819295  0.43531801  0.48391581     0.77000
C336        C  0.27426218  0.42771582  0.35493195     0.76900
O337        O  0.19345254  0.81542858  0.09147480    -0.72200
O338        O  0.29170128  0.82035940  0.06413203    -0.72400
O339        O  0.24537379  0.79492888  0.12266955    -0.72300
O340        O  0.23834326  0.83604664  0.03214946    -0.72300
O341        O  0.28423928  0.89625024  0.04628018    -0.72300
O342        O  0.26769304  0.85384588  0.14681955    -0.72300
O343        O  0.32303882  0.87685742  0.09391663    -0.72200
O344        O  0.22781192  0.87969187  0.10044230    -0.72400
V345        V  0.24259834  0.81771653  0.07790384     1.35200
V346        V  0.27474075  0.87598259  0.09706903     1.35200
C347        C  0.19428826  0.84838676  0.09738435     0.77000
C348        C  0.32407989  0.84967851  0.07616655     0.77100
C349        C  0.25741357  0.81667116  0.15060754     0.77000
C350        C  0.26481307  0.87009886  0.02157878     0.76900
O351        O  0.29064916  0.81543816  0.91205139    -0.72200
O352        O  0.19733076  0.82036920  0.93939116    -0.72400
O353        O  0.21822947  0.79494493  0.88085534    -0.72300
O354        O  0.26637559  0.83605031  0.97137867    -0.72300
O355        O  0.28069379  0.89625615  0.95725428    -0.72300
O356        O  0.25483975  0.85386459  0.85671159    -0.72300
O357        O  0.22250399  0.87687085  0.90961223    -0.72200
O358        O  0.32056419  0.87970274  0.90309123    -0.72400
V359        V  0.24379166  0.81772652  0.92562250     1.35200
V360        V  0.26992669  0.87599502  0.90646338     1.35200
C361        C  0.32277587  0.84839564  0.90614278     0.77000
C362        C  0.19427741  0.84968959  0.92735559     0.77100
C363        C  0.22793885  0.81669026  0.85292093     0.77000
C364        C  0.27396254  0.87010165  0.98195337     0.76900
O365        O  0.15845815  0.88404429  0.09139549    -0.72200
O366        O  0.06022919  0.87914788  0.06406406    -0.72400
O367        O  0.10659536  0.90463931  0.12256757    -0.72300
O368        O  0.11353705  0.86335524  0.03207400    -0.72300
O369        O  0.06756433  0.80321446  0.04629224    -0.72300
O370        O  0.08430980  0.84576184  0.14679139    -0.72300
O371        O  0.02889565  0.82272795  0.09397155    -0.72200
O372        O  0.12406997  0.81978755  0.10039250    -0.72400
V373        V  0.10932698  0.88177550  0.07782045     1.35200
V374        V  0.07716543  0.82354706  0.09706284     1.35200
C375        C  0.15760375  0.85108577  0.09734696     0.77000
C376        C  0.02785390  0.84987291  0.07616909     0.77100
C377        C  0.09460571  0.88294634  0.15054092     0.77000
C378        C  0.08698326  0.82932053  0.02154971     0.76900
O379        O  0.06093450  0.88405236  0.91212400    -0.72200
O380        O  0.15426464  0.87915511  0.93945467    -0.72400
O381        O  0.13339568  0.90465320  0.88095304    -0.72300
O382        O  0.08515995  0.86335637  0.97144141    -0.72300
O383        O  0.07099199  0.80321951  0.95721696    -0.72300
O384        O  0.09679402  0.84577977  0.85672193    -0.72300
O385        O  0.12917713  0.82274266  0.90953545    -0.72200
O386        O  0.03105755  0.81979596  0.90312390    -0.72400
V387        V  0.10779577  0.88178345  0.92569784     1.35200
V388        V  0.08172385  0.82355825  0.90644842     1.35200
C389        C  0.02882591  0.85109451  0.90617368     0.77000
C390        C  0.15736372  0.84988334  0.92734603     0.77100
C391        C  0.12368759  0.88296586  0.85297683     0.77000
C392        C  0.07767827  0.82932163  0.98196266     0.76900
O393        O  0.21011434  0.73502371  0.75807697    -0.72200
O394        O  0.20523304  0.82836839  0.73074376    -0.72400
O395        O  0.23066950  0.80746351  0.78925451    -0.72300
O396        O  0.18948780  0.75928707  0.69874303    -0.72300
O397        O  0.12932603  0.74508379  0.71291091    -0.72300
O398        O  0.17176938  0.77084552  0.81343940    -0.72300
O399        O  0.14877917  0.80324399  0.76060566    -0.72200
O400        O  0.14584959  0.70513526  0.76703092    -0.72400
V401        V  0.20785350  0.78189164  0.74449791     1.35200
V402        V  0.14960470  0.75579680  0.76369747     1.35200
C403        C  0.17715292  0.70291159  0.76401168     0.77000
C404        C  0.17594519  0.83145155  0.74283288     0.77100
C405        C  0.20895026  0.79773709  0.81721158     0.77000
C406        C  0.15545999  0.75178878  0.68818941     0.76900
O407        O  0.21026725  0.83253287  0.57876217    -0.72200
O408        O  0.20533344  0.73428942  0.60610138    -0.72400
O409        O  0.23085736  0.78065880  0.54758744    -0.72300
O410        O  0.18954695  0.78759990  0.63807153    -0.72300
O411        O  0.12939937  0.74165798  0.62384493    -0.72300
O412        O  0.17198884  0.75836736  0.52335481    -0.72300
O413        O  0.14891605  0.70296004  0.57620089    -0.72200
O414        O  0.14601787  0.79815847  0.56973425    -0.72400
V415        V  0.20797938  0.78339154  0.59233229     1.35200
V416        V  0.14975692  0.75124225  0.57308050     1.35200
C417        C  0.17731331  0.83168679  0.57281664     0.77000
C418        C  0.17605120  0.70191469  0.59401317     0.77100
C419        C  0.20917272  0.76865578  0.51961211     0.77000
C420        C  0.15549565  0.76106800  0.64859143     0.76900
O421        O  0.14150075  0.96473845  0.75813561    -0.72200
O422        O  0.14644789  0.87143363  0.73079450    -0.72400
O423        O  0.12096200  0.89229437  0.78932216    -0.72300
O424        O  0.16218141  0.94050397  0.69882289    -0.72300
O425        O  0.22235963  0.95478473  0.71300372    -0.72300
O426        O  0.17985226  0.92889086  0.81351339    -0.72300
O427        O  0.20290487  0.89656982  0.76063333    -0.72200
O428        O  0.20575490  0.99464286  0.76714004    -0.72400
V429        V  0.14379683  0.91788666  0.74456766     1.35200
V430        V  0.20203956  0.94399936  0.76377700     1.35200
C431        C  0.17445355  0.99685965  0.76405898     0.77000
C432        C  0.17575150  0.86836557  0.74285031     0.77100
C433        C  0.14267469  0.90198729  0.81727762     0.77000
C434        C  0.19623759  0.94807277  0.68827939     0.76900
O435        O  0.14165215  0.86752556  0.57875105    -0.72200
O436        O  0.14654477  0.96576108  0.60608813    -0.72400
O437        O  0.12114770  0.91943701  0.54755929    -0.72300
O438        O  0.16223667  0.91240442  0.63808969    -0.72300
O439        O  0.22243183  0.95833253  0.62396750    -0.72300
O440        O  0.18007162  0.94175163  0.52341841    -0.72300
O441        O  0.20304337  0.99710421  0.57629652    -0.72200
O442        O  0.20592048  0.90190056  0.56981449    -0.72400
V443        V  0.14392003  0.91666177  0.59232797     1.35200
V444        V  0.20219017  0.94881795  0.57317225     1.35200
C445        C  0.17461356  0.86837199  0.57283530     0.77000
C446        C  0.17585703  0.99814008  0.59403732     0.77100
C447        C  0.14289623  0.93146330  0.51962413     0.77000
C448        C  0.19627186  0.93889729  0.64866587     0.76900
O449        O  0.15857141  0.96471117  0.24538072    -0.72200
O450        O  0.06031936  0.87140296  0.27272785    -0.72400
O451        O  0.10665938  0.89226884  0.21419427    -0.72300
O452        O  0.11366486  0.94046993  0.30469872    -0.72300
O453        O  0.06776504  0.95474908  0.29053062    -0.72300
O454        O  0.08436138  0.92886142  0.19001196    -0.72300
O455        O  0.02899359  0.89653743  0.24289971    -0.72200
O456        O  0.12421800  0.99460989  0.23638705    -0.72400
V457        V  0.10942412  0.91785729  0.25895167     1.35200
V458        V  0.07728992  0.94396633  0.23975284     1.35200
C459        C  0.15773816  0.99683086  0.23946229     0.77000
C460        C  0.02794650  0.86833463  0.26067987     0.77100
C461        C  0.09463766  0.90196187  0.18624257     0.77000
C462        C  0.08718068  0.94803849  0.31524993     0.76900
O463        O  0.06124799  0.86751360  0.42478308    -0.72200
O464        O  0.15458694  0.96575384  0.39744352    -0.72400
O465        O  0.13366607  0.91943513  0.45597412    -0.72300
O466        O  0.08553898  0.91238906  0.36544377    -0.72300
O467        O  0.07125904  0.95830424  0.37956480    -0.72300
O468        O  0.09705327  0.94174267  0.48011409    -0.72300
O469        O  0.12942490  0.99708984  0.42723140    -0.72200
O470        O  0.03134940  0.90187934  0.43372237    -0.72400
V471        V  0.10811498  0.91665263  0.41120559     1.35200
V472        V  0.08199462  0.94879984  0.43036033     1.35200
C473        C  0.02913056  0.86835421  0.43069848     0.77000
C474        C  0.15764936  0.99813048  0.40949083     0.77100
C475        C  0.12394343  0.93146058  0.48390946     0.77000
C476        C  0.07798592  0.93887233  0.35486692     0.76900
O477        O  0.19357067  0.73498922  0.24545268    -0.72200
O478        O  0.29179927  0.82833615  0.27278651    -0.72400
O479        O  0.24545336  0.80743273  0.21427577    -0.72300
O480        O  0.23846800  0.75925336  0.30478740    -0.72300
O481        O  0.28442779  0.74505842  0.29060871    -0.72300
O482        O  0.26773823  0.77082462  0.19008404    -0.72300
O483        O  0.32313023  0.80322049  0.24291787    -0.72200
O484        O  0.22795118  0.70511065  0.23648845    -0.72400
V485        V  0.24270111  0.78185899  0.25903193     1.35200
V486        V  0.27485726  0.75577309  0.23982420     1.35200
C487        C  0.19442147  0.70288163  0.23951156     0.77000
C488        C  0.32417322  0.83142316  0.26069545     0.77100
C489        C  0.25744698  0.79771322  0.18631612     0.77000
C490        C  0.26500255  0.75176101  0.31533451     0.76900
O491        O  0.29097190  0.83251690  0.42476592    -0.72200
O492        O  0.19765486  0.73427607  0.39742522    -0.72400
O493        O  0.21850552  0.78064518  0.45593896    -0.72300
O494        O  0.26675497  0.78758643  0.36545248    -0.72300
O495        O  0.28094745  0.74163972  0.37967812    -0.72300
O496        O  0.25508759  0.75836359  0.48017258    -0.72300
O497        O  0.22273995  0.70295121  0.42733209    -0.72200
O498        O  0.32084601  0.79814438  0.43378585    -0.72400
V499        V  0.24411489  0.78337787  0.41119384     1.35200
V500        V  0.27018567  0.75123060  0.43044517     1.35200
C501        C  0.32307986  0.83167036  0.43071066     0.77000
C502        C  0.19456103  0.70190414  0.40951591     0.77100
C503        C  0.22819300  0.76865132  0.48391583     0.77000
C504        C  0.27426205  0.76104923  0.35493203     0.76900
O505        O  0.52678556  0.14876210  0.09147488    -0.72200
O506        O  0.62503431  0.15369256  0.06413195    -0.72400
O507        O  0.57870704  0.12826228  0.12266962    -0.72300
O508        O  0.57167674  0.16938025  0.03214936    -0.72300
O509        O  0.61757275  0.22958379  0.04628025    -0.72300
O510        O  0.60102651  0.18717945  0.14681944    -0.72300
O511        O  0.65637214  0.21019061  0.09391656    -0.72200
O512        O  0.56114492  0.21302521  0.10044232    -0.72400
V513        V  0.57593159  0.15104980  0.07790387     1.35200
V514        V  0.60807413  0.20931592  0.09706899     1.35200
C515        C  0.52762257  0.18172013  0.09738430     0.77000
C516        C  0.65741321  0.18301222  0.07616677     0.77100
C517        C  0.59074670  0.15000404  0.15060758     0.77000
C518        C  0.59814585  0.20343158  0.02157874     0.76900
O519        O  0.62398281  0.14877168  0.91205137    -0.72200
O520        O  0.53066423  0.15370258  0.93939112    -0.72400
O521        O  0.55156286  0.12827825  0.88085537    -0.72300
O522        O  0.59970897  0.16938386  0.97137879    -0.72300
O523        O  0.61402703  0.22958958  0.95725425    -0.72300
O524        O  0.58817296  0.18719793  0.85671163    -0.72300
O525        O  0.55583757  0.21020436  0.90961218    -0.72200
O526        O  0.65389757  0.21303615  0.90309115    -0.72400
V527        V  0.57712501  0.15105986  0.92562245     1.35200
V528        V  0.60325992  0.20932834  0.90646342     1.35200
C529        C  0.65610879  0.18172887  0.90614279     0.77000
C530        C  0.52761017  0.18302238  0.92735595     0.77100
C531        C  0.56127212  0.15002371  0.85292075     0.77000
C532        C  0.60729583  0.20343447  0.98195332     0.76900
O533        O  0.49179125  0.21737761  0.09139551    -0.72200
O534        O  0.39356202  0.21248083  0.06406403    -0.72400
O535        O  0.43992846  0.23797248  0.12256740    -0.72300
O536        O  0.44687019  0.19668839  0.03207399    -0.72300
O537        O  0.40089758  0.13654760  0.04629224    -0.72300
O538        O  0.41764306  0.17909500  0.14679130    -0.72300
O539        O  0.36222866  0.15606109  0.09397154    -0.72200
O540        O  0.45740319  0.15312081  0.10039247    -0.72400
V541        V  0.44266020  0.21510879  0.07782041     1.35200
V542        V  0.41049878  0.15688035  0.09706281     1.35200
C543        C  0.49093700  0.18441914  0.09734700     0.77000
C544        C  0.36118807  0.18320618  0.07616912     0.77100
C545        C  0.42793884  0.21627952  0.15054110     0.77000
C546        C  0.42031659  0.16265388  0.02154972     0.76900
O547        O  0.39426760  0.21738560  0.91212402    -0.72200
O548        O  0.48759825  0.21248851  0.93945468    -0.72400
O549        O  0.46672911  0.23798665  0.88095308    -0.72300
O550        O  0.41849340  0.19668969  0.97144144    -0.72300
O551        O  0.40432534  0.13655282  0.95721692    -0.72300
O552        O  0.43012756  0.17911329  0.85672188    -0.72300
O553        O  0.46251068  0.15607609  0.90953566    -0.72200
O554        O  0.36439076  0.15312940  0.90312380    -0.72400
V555        V  0.44112924  0.21511681  0.92569782     1.35200
V556        V  0.41505718  0.15689158  0.90644844     1.35200
C557        C  0.36216029  0.18442806  0.90617376     0.77000
C558        C  0.49069632  0.18321628  0.92734579     0.77100
C559        C  0.45702063  0.21629880  0.85297676     0.77000
C560        C  0.41101163  0.16265511  0.98196269     0.76900
O561        O  0.54344771  0.06835717  0.75807697    -0.72200
O562        O  0.53856658  0.16170161  0.73074369    -0.72400
O563        O  0.56400283  0.14079683  0.78925455    -0.72300
O564        O  0.52282094  0.09262031  0.69874293    -0.72300
O565        O  0.46265923  0.07841712  0.71291110    -0.72300
O566        O  0.50510262  0.10417876  0.81343934    -0.72300
O567        O  0.48211263  0.13657738  0.76060564    -0.72200
O568        O  0.47918284  0.03846879  0.76703090    -0.72400
V569        V  0.54118689  0.11522500  0.74449795     1.35200
V570        V  0.48293800  0.08913020  0.76369749     1.35200
C571        C  0.51048623  0.03624469  0.76401168     0.77000
C572        C  0.50927807  0.16478500  0.74283312     0.77100
C573        C  0.54228394  0.13107064  0.81721167     0.77000
C574        C  0.48879402  0.08512219  0.68818934     0.76900
O575        O  0.54360032  0.16586607  0.57876217    -0.72200
O576        O  0.53866663  0.06762271  0.60610132    -0.72400
O577        O  0.56419049  0.11399211  0.54758735    -0.72300
O578        O  0.52287976  0.12093292  0.63807168    -0.72300
O579        O  0.46273235  0.07499102  0.62384495    -0.72300
O580        O  0.50532192  0.09170050  0.52335484    -0.72300
O581        O  0.48224921  0.03629321  0.57620087    -0.72200
O582        O  0.47935085  0.13149135  0.56973425    -0.72400
V583        V  0.54131265  0.11672485  0.59233227     1.35200
V584        V  0.48309021  0.08457552  0.57308055     1.35200
C585        C  0.51064714  0.16502076  0.57281671     0.77000
C586        C  0.50938454  0.03524803  0.59401321     0.77100
C587        C  0.54250609  0.10198917  0.51961227     0.77000
C588        C  0.48882965  0.09440198  0.64859133     0.76900
O589        O  0.47483401  0.29807173  0.75813563    -0.72200
O590        O  0.47978142  0.20476695  0.73079458    -0.72400
O591        O  0.45429550  0.22562775  0.78932218    -0.72300
O592        O  0.49551465  0.27383733  0.69882291    -0.72300
O593        O  0.55569293  0.28811809  0.71300367    -0.72300
O594        O  0.51318588  0.26222439  0.81351334    -0.72300
O595        O  0.53623833  0.22990318  0.76063338    -0.72200
O596        O  0.53908816  0.32797617  0.76714000    -0.72400
V597        V  0.47713011  0.25122001  0.74456764     1.35200
V598        V  0.53537286  0.27733267  0.76377699     1.35200
C599        C  0.50778697  0.33019293  0.76405900     0.77000
C600        C  0.50908446  0.20169892  0.74285012     0.77100
C601        C  0.47600745  0.23532031  0.81727760     0.77000
C602        C  0.52957119  0.28140620  0.68827954     0.76900
O603        O  0.47498511  0.20085883  0.57875113    -0.72200
O604        O  0.47987803  0.29909443  0.60608810    -0.72400
O605        O  0.45448112  0.25277031  0.54755934    -0.72300
O606        O  0.49556999  0.24573776  0.63808969    -0.72300
O607        O  0.55576521  0.29166585  0.62396755    -0.72300
O608        O  0.51340511  0.27508494  0.52341848    -0.72300
O609        O  0.53637665  0.33043753  0.57629655    -0.72200
O610        O  0.53925346  0.23523354  0.56981455    -0.72400
V611        V  0.47725333  0.24999509  0.59232796     1.35200
V612        V  0.53552354  0.28215126  0.57317227     1.35200
C613        C  0.50794768  0.20170578  0.57283517     0.77000
C614        C  0.50919053  0.33147351  0.59403713     0.77100
C615        C  0.47622951  0.26479669  0.51962382     0.77000
C616        C  0.52960531  0.27223072  0.64866588     0.76900
O617        O  0.49190484  0.29804431  0.24538071    -0.72200
O618        O  0.39365264  0.20473610  0.27272785    -0.72400
O619        O  0.43999263  0.22560202  0.21419414    -0.72300
O620        O  0.44699810  0.27380310  0.30469873    -0.72300
O621        O  0.40109836  0.28808231  0.29053061    -0.72300
O622        O  0.41769466  0.26219462  0.19001192    -0.72300
O623        O  0.36232695  0.22987062  0.24289977    -0.72200
O624        O  0.45755161  0.32794314  0.23638703    -0.72400
V625        V  0.44275739  0.25119054  0.25895161     1.35200
V626        V  0.41062322  0.27729957  0.23975284     1.35200
C627        C  0.49107097  0.33016404  0.23946221     0.77000
C628        C  0.36127974  0.20166793  0.26067991     0.77100
C629        C  0.42797100  0.23529497  0.18624265     0.77000
C630        C  0.42051410  0.28137168  0.31524997     0.76900
O631        O  0.39458111  0.20084671  0.42478304    -0.72200
O632        O  0.48792026  0.29908710  0.39744357    -0.72400
O633        O  0.46699921  0.25276818  0.45597419    -0.72300
O634        O  0.41887215  0.24572231  0.36544373    -0.72300
O635        O  0.40459244  0.29163767  0.37956481    -0.72300
O636        O  0.43038659  0.27507599  0.48011413    -0.72300
O637        O  0.46275838  0.33042329  0.42723130    -0.72200
O638        O  0.36468250  0.23521232  0.43372245    -0.72400
V639        V  0.44144818  0.24998575  0.41120557     1.35200
V640        V  0.41532796  0.28213321  0.43036032     1.35200
C641        C  0.36246404  0.20168827  0.43069853     0.77000
C642        C  0.49098234  0.33146341  0.40949090     0.77100
C643        C  0.45727672  0.26479379  0.48390938     0.77000
C644        C  0.41131928  0.27220537  0.35486688     0.76900
O645        O  0.52690400  0.06832251  0.24545268    -0.72200
O646        O  0.62513292  0.16166961  0.27278643    -0.72400
O647        O  0.57878668  0.14076607  0.21427581    -0.72300
O648        O  0.57180151  0.09258669  0.30478746    -0.72300
O649        O  0.61776117  0.07839167  0.29060865    -0.72300
O650        O  0.60107164  0.10415812  0.19008397    -0.72300
O651        O  0.65646370  0.13655385  0.24291783    -0.72200
O652        O  0.56128435  0.03844386  0.23648845    -0.72400
V653        V  0.57603446  0.11519229  0.25903190     1.35200
V654        V  0.60819066  0.08910645  0.23982422     1.35200
C655        C  0.52775542  0.03621526  0.23951148     0.77000
C656        C  0.65750583  0.16475646  0.26069576     0.77100
C657        C  0.59078046  0.13104639  0.18631599     0.77000
C658        C  0.59833569  0.08509438  0.31533446     0.76900
O659        O  0.62430550  0.16585020  0.42476598    -0.72200
O660        O  0.53098806  0.06760919  0.39742524    -0.72400
O661        O  0.55183859  0.11397831  0.45593899    -0.72300
O662        O  0.60008816  0.12091943  0.36545238    -0.72300
O663        O  0.61428084  0.07497294  0.37967821    -0.72300
O664        O  0.58842069  0.09169702  0.48017275    -0.72300
O665        O  0.55607318  0.03628440  0.42733208    -0.72200
O666        O  0.65417930  0.13147742  0.43378586    -0.72400
V667        V  0.57744808  0.11671104  0.41119387     1.35200
V668        V  0.60351896  0.08456390  0.43044515     1.35200
C669        C  0.65641225  0.16500386  0.43071047     0.77000
C670        C  0.52789427  0.03523747  0.40951595     0.77100
C671        C  0.56152677  0.10198441  0.48391557     0.77000
C672        C  0.60759529  0.09438310  0.35493206     0.76900
O673        O  0.52678576  0.48209544  0.09147487    -0.72200
O674        O  0.62503464  0.48702606  0.06413200    -0.72400
O675        O  0.57870708  0.46159557  0.12266957    -0.72300
O676        O  0.57167673  0.50271354  0.03214941    -0.72300
O677        O  0.61757279  0.56291710  0.04628022    -0.72300
O678        O  0.60102643  0.52051263  0.14681953    -0.72300
O679        O  0.65637233  0.54352404  0.09391661    -0.72200
O680        O  0.56114539  0.54635867  0.10044230    -0.72400
V681        V  0.57593164  0.48438316  0.07790388     1.35200
V682        V  0.60807422  0.54264928  0.09706901     1.35200
C683        C  0.52762195  0.51505310  0.09738429     0.77000
C684        C  0.65741323  0.51634519  0.07616655     0.77100
C685        C  0.59074690  0.48333774  0.15060763     0.77000
C686        C  0.59814596  0.53676506  0.02157875     0.76900
O687        O  0.62398287  0.48210504  0.91205134    -0.72200
O688        O  0.53066411  0.48703584  0.93939114    -0.72400
O689        O  0.55156280  0.46161162  0.88085539    -0.72300
O690        O  0.59970892  0.50271706  0.97137875    -0.72300
O691        O  0.61402712  0.56292287  0.95725425    -0.72300
O692        O  0.58817313  0.52053134  0.85671165    -0.72300
O693        O  0.55583734  0.54353752  0.90961221    -0.72200
O694        O  0.65389772  0.54636943  0.90309123    -0.72400
V695        V  0.57712494  0.48439317  0.92562247     1.35200
V696        V  0.60325998  0.54266168  0.90646337     1.35200
C697        C  0.65610832  0.51506216  0.90614291     0.77000
C698        C  0.52761074  0.51635626  0.92735555     0.77100
C699        C  0.56127192  0.48335680  0.85292076     0.77000
C700        C  0.60729579  0.53676802  0.98195333     0.76900
O701        O  0.49179142  0.55071091  0.09139550    -0.72200
O702        O  0.39356221  0.54581425  0.06406401    -0.72400
O703        O  0.43992854  0.57130574  0.12256747    -0.72300
O704        O  0.44687018  0.53002167  0.03207395    -0.72300
O705        O  0.40089762  0.46988089  0.04629223    -0.72300
O706        O  0.41764317  0.51242823  0.14679130    -0.72300
O707        O  0.36222890  0.48939443  0.09397156    -0.72200
O708        O  0.45740364  0.48645426  0.10039245    -0.72400
V709        V  0.44266020  0.54844209  0.07782039     1.35200
V710        V  0.41049884  0.49021367  0.09706282     1.35200
C711        C  0.49093637  0.51775208  0.09734701     0.77000
C712        C  0.36118763  0.51653964  0.07616907     0.77100
C713        C  0.42793898  0.54961313  0.15054110     0.77000
C714        C  0.42031672  0.49598726  0.02154974     0.76900
O715        O  0.39426782  0.55071904  0.91212399    -0.72200
O716        O  0.48759804  0.54582173  0.93945467    -0.72400
O717        O  0.46672912  0.57131988  0.88095304    -0.72300
O718        O  0.41849341  0.53002305  0.97144147    -0.72300
O719        O  0.40432524  0.46988615  0.95721688    -0.72300
O720        O  0.43012732  0.51244651  0.85672190    -0.72300
O721        O  0.46251043  0.48940930  0.90953545    -0.72200
O722        O  0.36439074  0.48646267  0.90312390    -0.72400
V723        V  0.44112919  0.54845015  0.92569785     1.35200
V724        V  0.41505711  0.49022493  0.90644842     1.35200
C725        C  0.36215967  0.51776123  0.90617373     0.77000
C726        C  0.49069699  0.51655002  0.92734604     0.77100
C727        C  0.45702092  0.54963251  0.85297684     0.77000
C728        C  0.41101164  0.49598841  0.98196269     0.76900
O729        O  0.54344772  0.40169043  0.75807699    -0.72200
O730        O  0.53856679  0.49503489  0.73074367    -0.72400
O731        O  0.56400287  0.47413011  0.78925458    -0.72300
O732        O  0.52282085  0.42595363  0.69874295    -0.72300
O733        O  0.46265918  0.41175045  0.71291106    -0.72300
O734        O  0.50510273  0.43751223  0.81343937    -0.72300
O735        O  0.48211275  0.46991073  0.76060550    -0.72200
O736        O  0.47918291  0.37180214  0.76703093    -0.72400
V737        V  0.54118683  0.44855828  0.74449797     1.35200
V738        V  0.48293804  0.42246354  0.76369744     1.35200
C739        C  0.51048621  0.36957800  0.76401173     0.77000
C740        C  0.50927773  0.49811830  0.74283330     0.77100
C741        C  0.54228357  0.46440376  0.81721159     0.77000
C742        C  0.48879407  0.41845551  0.68818932     0.76900
O743        O  0.54360065  0.49919954  0.57876224    -0.72200
O744        O  0.53866659  0.40095610  0.60610125    -0.72400
O745        O  0.56419066  0.44732551  0.54758742    -0.72300
O746        O  0.52287985  0.45426626  0.63807177    -0.72300
O747        O  0.46273245  0.40832445  0.62384489    -0.72300
O748        O  0.50532216  0.42503404  0.52335478    -0.72300
O749        O  0.48224908  0.36962680  0.57620074    -0.72200
O750        O  0.47935129  0.46482527  0.56973427    -0.72400
V751        V  0.54131269  0.45005822  0.59233226     1.35200
V752        V  0.48309025  0.41790892  0.57308054     1.35200
C753        C  0.51064624  0.49835317  0.57281661     0.77000
C754        C  0.50938523  0.36858132  0.59401357     0.77100
C755        C  0.54250598  0.43532243  0.51961207     0.77000
C756        C  0.48883012  0.42773559  0.64859127     0.76900
O757        O  0.47483420  0.63140505  0.75813560    -0.72200
O758        O  0.47978171  0.53810018  0.73079461    -0.72400
O759        O  0.45429543  0.55896103  0.78932211    -0.72300
O760        O  0.49551475  0.60717065  0.69882292    -0.72300
O761        O  0.55569297  0.62145139  0.71300365    -0.72300
O762        O  0.51318567  0.59555754  0.81351338    -0.72300
O763        O  0.53623851  0.56323651  0.76063345    -0.72200
O764        O  0.53908837  0.66130949  0.76714003    -0.72400
V765        V  0.47713021  0.58455334  0.74456762     1.35200
V766        V  0.53537288  0.61066600  0.76377698     1.35200
C767        C  0.50778695  0.66352634  0.76405896     0.77000
C768        C  0.50908408  0.53503235  0.74284988     0.77100
C769        C  0.47600803  0.56865393  0.81727763     0.77000
C770        C  0.52957127  0.61473948  0.68827953     0.76900
O771        O  0.47498550  0.53419214  0.57875100    -0.72200
O772        O  0.47987812  0.63242781  0.60608808    -0.72400
O773        O  0.45448111  0.58610371  0.54755934    -0.72300
O774        O  0.49556995  0.57907106  0.63808967    -0.72300
O775        O  0.55576513  0.62499919  0.62396750    -0.72300
O776        O  0.51340508  0.60841827  0.52341849    -0.72300
O777        O  0.53637673  0.66377081  0.57629644    -0.72200
O778        O  0.53925377  0.56856721  0.56981451    -0.72400
V779        V  0.47725337  0.58332851  0.59232799     1.35200
V780        V  0.53552350  0.61548466  0.57317225     1.35200
C781        C  0.50794655  0.53503889  0.57283537     0.77000
C782        C  0.50918995  0.66480684  0.59403749     0.77100
C783        C  0.47622926  0.59812992  0.51962381     0.77000
C784        C  0.52960536  0.60556408  0.64866588     0.76900
O785        O  0.49190476  0.63137775  0.24538073    -0.72200
O786        O  0.39365305  0.53806968  0.27272799    -0.72400
O787        O  0.43999278  0.55893541  0.21419426    -0.72300
O788        O  0.44699841  0.60713658  0.30469863    -0.72300
O789        O  0.40109841  0.62141558  0.29053066    -0.72300
O790        O  0.41769476  0.59552796  0.19001191    -0.72300
O791        O  0.36232706  0.56320396  0.24289972    -0.72200
O792        O  0.45755130  0.66127646  0.23638702    -0.72400
V793        V  0.44275744  0.58452393  0.25895170     1.35200
V794        V  0.41062319  0.61063295  0.23975276     1.35200
C795        C  0.49107152  0.66349757  0.23946231     0.77000
C796        C  0.36127908  0.53500113  0.26067961     0.77100
C797        C  0.42797091  0.56862845  0.18624252     0.77000
C798        C  0.42051332  0.61470521  0.31525001     0.76900
O799        O  0.39458160  0.53418033  0.42478305    -0.72200
O800        O  0.48792056  0.63242071  0.39744340    -0.72400
O801        O  0.46699939  0.58610174  0.45597397    -0.72300
O802        O  0.41887231  0.57905561  0.36544381    -0.72300
O803        O  0.40459251  0.62497097  0.37956480    -0.72300
O804        O  0.43038656  0.60840940  0.48011397    -0.72300
O805        O  0.46275876  0.66375683  0.42723121    -0.72200
O806        O  0.36468285  0.56854603  0.43372245    -0.72400
V807        V  0.44144835  0.58331923  0.41120555     1.35200
V808        V  0.41532798  0.61546656  0.43036037     1.35200
C809        C  0.36246342  0.53502065  0.43069860     0.77000
C810        C  0.49098172  0.66479673  0.40949113     0.77100
C811        C  0.45727715  0.59812721  0.48390976     0.77000
C812        C  0.41131922  0.60553905  0.35486684     0.76900
O813        O  0.52690396  0.40165571  0.24545267    -0.72200
O814        O  0.62513309  0.49500293  0.27278643    -0.72400
O815        O  0.57878678  0.47409944  0.21427582    -0.72300
O816        O  0.57180156  0.42592003  0.30478751    -0.72300
O817        O  0.61776123  0.41172502  0.29060861    -0.72300
O818        O  0.60107157  0.43749130  0.19008401    -0.72300
O819        O  0.65646377  0.46988716  0.24291773    -0.72200
O820        O  0.56128445  0.37177718  0.23648846    -0.72400
V821        V  0.57603445  0.44852565  0.25903193     1.35200
V822        V  0.60819061  0.42243976  0.23982418     1.35200
C823        C  0.52775509  0.36954869  0.23951157     0.77000
C824        C  0.65750568  0.49808980  0.26069587     0.77100
C825        C  0.59078038  0.46437988  0.18631608     0.77000
C826        C  0.59833546  0.41842778  0.31533434     0.76900
O827        O  0.62430542  0.49918362  0.42476595    -0.72200
O828        O  0.53098812  0.40094252  0.39742526    -0.72400
O829        O  0.55183878  0.44731165  0.45593893    -0.72300
O830        O  0.60008821  0.45425283  0.36545244    -0.72300
O831        O  0.61428094  0.40830634  0.37967819    -0.72300
O832        O  0.58842099  0.42503030  0.48017259    -0.72300
O833        O  0.55607330  0.36961777  0.42733209    -0.72200
O834        O  0.65417934  0.46481102  0.43378584    -0.72400
V835        V  0.57744811  0.45004442  0.41119382     1.35200
V836        V  0.60351896  0.41789727  0.43044513     1.35200
C837        C  0.65641262  0.49833676  0.43071054     0.77000
C838        C  0.52789436  0.36857079  0.40951588     0.77100
C839        C  0.56152629  0.43531795  0.48391582     0.77000
C840        C  0.60759540  0.42771602  0.35493202     0.76900
O841        O  0.52678564  0.81542874  0.09147485    -0.72200
O842        O  0.62503453  0.82035938  0.06413203    -0.72400
O843        O  0.57870718  0.79492887  0.12266958    -0.72300
O844        O  0.57167668  0.83604669  0.03214942    -0.72300
O845        O  0.61757266  0.89625031  0.04628019    -0.72300
O846        O  0.60102638  0.85384585  0.14681958    -0.72300
O847        O  0.65637213  0.87685741  0.09391663    -0.72200
O848        O  0.56114495  0.87969183  0.10044231    -0.72400
V849        V  0.57593170  0.81771653  0.07790385     1.35200
V850        V  0.60807414  0.87598259  0.09706902     1.35200
C851        C  0.52762250  0.84838674  0.09738426     0.77000
C852        C  0.65741309  0.84967852  0.07616655     0.77100
C853        C  0.59074690  0.81667119  0.15060746     0.77000
C854        C  0.59814628  0.87009873  0.02157881     0.76900
O855        O  0.62398252  0.81543816  0.91205139    -0.72200
O856        O  0.53066423  0.82036918  0.93939116    -0.72400
O857        O  0.55156278  0.79494488  0.88085540    -0.72300
O858        O  0.59970895  0.83605034  0.97137871    -0.72300
O859        O  0.61402715  0.89625616  0.95725426    -0.72300
O860        O  0.58817301  0.85386450  0.85671158    -0.72300
O861        O  0.55583763  0.87687091  0.90961217    -0.72200
O862        O  0.65389757  0.87970274  0.90309122    -0.72400
V863        V  0.57712500  0.81772651  0.92562250     1.35200
V864        V  0.60326008  0.87599501  0.90646338     1.35200
C865        C  0.65610922  0.84839564  0.90614277     0.77000
C866        C  0.52761034  0.84968947  0.92735572     0.77100
C867        C  0.56127227  0.81669045  0.85292082     0.77000
C868        C  0.60729586  0.87010157  0.98195338     0.76900
O869        O  0.49179139  0.88404434  0.09139546    -0.72200
O870        O  0.39356245  0.87914788  0.06406406    -0.72400
O871        O  0.43992853  0.90463927  0.12256757    -0.72300
O872        O  0.44687027  0.86335527  0.03207402    -0.72300
O873        O  0.40089767  0.80321443  0.04629225    -0.72300
O874        O  0.41764316  0.84576183  0.14679137    -0.72300
O875        O  0.36222894  0.82272793  0.09397157    -0.72200
O876        O  0.45740324  0.81978756  0.10039248    -0.72400
V877        V  0.44266021  0.88177551  0.07782045     1.35200
V878        V  0.41049874  0.82354706  0.09706283     1.35200
C879        C  0.49093704  0.85108583  0.09734695     0.77000
C880        C  0.36118718  0.84987295  0.07616912     0.77100
C881        C  0.42793905  0.88294633  0.15054090     0.77000
C882        C  0.42031658  0.82932054  0.02154970     0.76900
O883        O  0.39426752  0.88405221  0.91212399    -0.72200
O884        O  0.48759801  0.87915513  0.93945464    -0.72400
O885        O  0.46672908  0.90465327  0.88095303    -0.72300
O886        O  0.41849334  0.86335638  0.97144141    -0.72300
O887        O  0.40432532  0.80321949  0.95721697    -0.72300
O888        O  0.43012745  0.84577990  0.85672187    -0.72300
O889        O  0.46251052  0.82274267  0.90953552    -0.72200
O890        O  0.36439073  0.81979599  0.90312386    -0.72400
V891        V  0.44112915  0.88178347  0.92569783     1.35200
V892        V  0.41505721  0.82355823  0.90644843     1.35200
C893        C  0.36216026  0.85109467  0.90617379     0.77000
C894        C  0.49069699  0.84988332  0.92734592     0.77100
C895        C  0.45702071  0.88296562  0.85297683     0.77000
C896        C  0.41101166  0.82932165  0.98196265     0.76900
O897        O  0.54344776  0.73502380  0.75807697    -0.72200
O898        O  0.53856653  0.82836826  0.73074370    -0.72400
O899        O  0.56400282  0.80746351  0.78925453    -0.72300
O900        O  0.52282105  0.75928701  0.69874300    -0.72300
O901        O  0.46265929  0.74508380  0.71291103    -0.72300
O902        O  0.50510258  0.77084541  0.81343934    -0.72300
O903        O  0.48211257  0.80324398  0.76060565    -0.72200
O904        O  0.47918296  0.70513524  0.76703090    -0.72400
V905        V  0.54118687  0.78189166  0.74449793     1.35200
V906        V  0.48293795  0.75579680  0.76369750     1.35200
C907        C  0.51048600  0.70291151  0.76401170     0.77000
C908        C  0.50927813  0.83145168  0.74283309     0.77100
C909        C  0.54228401  0.79773733  0.81721166     0.77000
C910        C  0.48879372  0.75178883  0.68818933     0.76900
O911        O  0.54360054  0.83253288  0.57876221    -0.72200
O912        O  0.53866668  0.73428947  0.60610138    -0.72400
O913        O  0.56419062  0.78065879  0.54758735    -0.72300
O914        O  0.52288003  0.78759983  0.63807160    -0.72300
O915        O  0.46273250  0.74165795  0.62384495    -0.72300
O916        O  0.50532225  0.75836739  0.52335465    -0.72300
O917        O  0.48224924  0.70296003  0.57620088    -0.72200
O918        O  0.47935112  0.79815845  0.56973425    -0.72400
V919        V  0.54131266  0.78339159  0.59233233     1.35200
V920        V  0.48309020  0.75124225  0.57308049     1.35200
C921        C  0.51064642  0.83168675  0.57281662     0.77000
C922        C  0.50938451  0.70191467  0.59401317     0.77100
C923        C  0.54250566  0.76865572  0.51961235     0.77000
C924        C  0.48882898  0.76106810  0.64859140     0.76900
O925        O  0.47483408  0.96473842  0.75813562    -0.72200
O926        O  0.47978131  0.87143360  0.73079453    -0.72400
O927        O  0.45429539  0.89229439  0.78932214    -0.72300
O928        O  0.49551467  0.94050399  0.69882290    -0.72300
O929        O  0.55569292  0.95478473  0.71300369    -0.72300
O930        O  0.51318576  0.92889095  0.81351332    -0.72300
O931        O  0.53623824  0.89656983  0.76063340    -0.72200
O932        O  0.53908824  0.99464287  0.76714000    -0.72400
V933        V  0.47713010  0.91788665  0.74456767     1.35200
V934        V  0.53537290  0.94399934  0.76377700     1.35200
C935        C  0.50778703  0.99685955  0.76405897     0.77000
C936        C  0.50908468  0.86836557  0.74285022     0.77100
C937        C  0.47600765  0.90198707  0.81727769     0.77000
C938        C  0.52957094  0.94807275  0.68827945     0.76900
O939        O  0.47498550  0.86752561  0.57875102    -0.72200
O940        O  0.47987812  0.96576108  0.60608812    -0.72400
O941        O  0.45448107  0.91943701  0.54755924    -0.72300
O942        O  0.49556993  0.91240437  0.63808964    -0.72300
O943        O  0.55576517  0.95833248  0.62396755    -0.72300
O944        O  0.51340499  0.94175160  0.52341838    -0.72300
O945        O  0.53637671  0.99710421  0.57629647    -0.72200
O946        O  0.53925386  0.90190063  0.56981453    -0.72400
V947        V  0.47725337  0.91666179  0.59232798     1.35200
V948        V  0.53552355  0.94881797  0.57317226     1.35200
C949        C  0.50794669  0.86837191  0.57283531     0.77000
C950        C  0.50919040  0.99814008  0.59403732     0.77100
C951        C  0.47622960  0.93146330  0.51962411     0.77000
C952        C  0.52960558  0.93889753  0.64866595     0.76900
O953        O  0.49190481  0.96471112  0.24538071    -0.72200
O954        O  0.39365263  0.87140285  0.27272786    -0.72400
O955        O  0.43999278  0.89226879  0.21419429    -0.72300
O956        O  0.44699822  0.94046993  0.30469873    -0.72300
O957        O  0.40109826  0.95474892  0.29053058    -0.72300
O958        O  0.41769464  0.92886129  0.19001197    -0.72300
O959        O  0.36232686  0.89653727  0.24289967    -0.72200
O960        O  0.45755135  0.99460979  0.23638704    -0.72400
V961        V  0.44275752  0.91785728  0.25895166     1.35200
V962        V  0.41062317  0.94396623  0.23975281     1.35200
C963        C  0.49107138  0.99683087  0.23946224     0.77000
C964        C  0.36127992  0.86833457  0.26067999     0.77100
C965        C  0.42797099  0.90196182  0.18624258     0.77000
C966        C  0.42051402  0.94803846  0.31524993     0.76900
O967        O  0.39458114  0.86751358  0.42478311    -0.72200
O968        O  0.48792019  0.96575380  0.39744348    -0.72400
O969        O  0.46699934  0.91943509  0.45597407    -0.72300
O970        O  0.41887218  0.91238902  0.36544376    -0.72300
O971        O  0.40459239  0.95830431  0.37956479    -0.72300
O972        O  0.43038659  0.94174270  0.48011409    -0.72300
O973        O  0.46275821  0.99708984  0.42723143    -0.72200
O974        O  0.36468267  0.90187943  0.43372241    -0.72400
V975        V  0.44144829  0.91665259  0.41120555     1.35200
V976        V  0.41532795  0.94879985  0.43036034     1.35200
C977        C  0.36246405  0.86835400  0.43069844     0.77000
C978        C  0.49098273  0.99813051  0.40949082     0.77100
C979        C  0.45727678  0.93146058  0.48390949     0.77000
C980        C  0.41131922  0.93887231  0.35486692     0.76900
O981        O  0.52690395  0.73498921  0.24545268    -0.72200
O982        O  0.62513265  0.82833614  0.27278649    -0.72400
O983        O  0.57878671  0.80743273  0.21427580    -0.72300
O984        O  0.57180134  0.75925336  0.30478738    -0.72300
O985        O  0.61776113  0.74505842  0.29060873    -0.72300
O986        O  0.60107158  0.77082461  0.19008404    -0.72300
O987        O  0.65646358  0.80322047  0.24291785    -0.72200
O988        O  0.56128427  0.70511053  0.23648845    -0.72400
V989        V  0.57603446  0.78185898  0.25903193     1.35200
V990        V  0.60819065  0.75577311  0.23982419     1.35200
C991        C  0.52775550  0.70288185  0.23951153     0.77000
C992        C  0.65750649  0.83142317  0.26069550     0.77100
C993        C  0.59078032  0.79771322  0.18631610     0.77000
C994        C  0.59833592  0.75176104  0.31533450     0.76900
O995        O  0.62430557  0.83251703  0.42476600    -0.72200
O996        O  0.53098816  0.73427603  0.39742531    -0.72400
O997        O  0.55183876  0.78064509  0.45593900    -0.72300
O998        O  0.60008819  0.78758640  0.36545250    -0.72300
O999        O  0.61428080  0.74163980  0.37967813    -0.72300
O1000       O  0.58842088  0.75836359  0.48017260    -0.72300
O1001       O  0.55607334  0.70295122  0.42733213    -0.72200
O1002       O  0.65417939  0.79814435  0.43378585    -0.72400
V1003       V  0.57744814  0.78337780  0.41119389     1.35200
V1004       V  0.60351892  0.75123059  0.43044518     1.35200
C1005       C  0.65641249  0.83167043  0.43071050     0.77000
C1006       C  0.52789425  0.70190425  0.40951575     0.77100
C1007       C  0.56152618  0.76865134  0.48391579     0.77000
C1008       C  0.60759536  0.76104921  0.35493203     0.76900
O1009       O  0.86011895  0.14876214  0.09147488    -0.72200
O1010       O  0.95836769  0.15369257  0.06413195    -0.72400
O1011       O  0.91204038  0.12826231  0.12266956    -0.72300
O1012       O  0.90501010  0.16938029  0.03214936    -0.72300
O1013       O  0.95090611  0.22958379  0.04628026    -0.72300
O1014       O  0.93435984  0.18717953  0.14681938    -0.72300
O1015       O  0.98970538  0.21019066  0.09391662    -0.72200
O1016       O  0.89447836  0.21302529  0.10044232    -0.72400
V1017       V  0.90926495  0.15104979  0.07790386     1.35200
V1018       V  0.94140742  0.20931590  0.09706900     1.35200
C1019       C  0.86095572  0.18171993  0.09738428     0.77000
C1020       C  0.99074703  0.18301206  0.07616664     0.77100
C1021       C  0.92408009  0.15000388  0.15060775     0.77000
C1022       C  0.93147921  0.20343159  0.02157875     0.76900
O1023       O  0.95731613  0.14877164  0.91205136    -0.72200
O1024       O  0.86399768  0.15370255  0.93939112    -0.72400
O1025       O  0.88489607  0.12827831  0.88085532    -0.72300
O1026       O  0.93304213  0.16938381  0.97137879    -0.72300
O1027       O  0.94736040  0.22958960  0.95725424    -0.72300
O1028       O  0.92150636  0.18719802  0.85671166    -0.72300
O1029       O  0.88917102  0.21020441  0.90961217    -0.72200
O1030       O  0.98723105  0.21303604  0.90309116    -0.72400
V1031       V  0.91045824  0.15105985  0.92562245     1.35200
V1032       V  0.93659324  0.20932835  0.90646341     1.35200
C1033       C  0.98944171  0.18172899  0.90614282     0.77000
C1034       C  0.86094321  0.18302254  0.92735591     0.77100
C1035       C  0.89460527  0.15002351  0.85292084     0.77000
C1036       C  0.94062910  0.20343444  0.98195333     0.76900
O1037       O  0.82512470  0.21737759  0.09139552    -0.72200
O1038       O  0.72689528  0.21248078  0.06406401    -0.72400
O1039       O  0.77326181  0.23797246  0.12256744    -0.72300
O1040       O  0.78020357  0.19668845  0.03207401    -0.72300
O1041       O  0.73423097  0.13654763  0.04629222    -0.72300
O1042       O  0.75097644  0.17909497  0.14679132    -0.72300
O1043       O  0.69556200  0.15606111  0.09397160    -0.72200
O1044       O  0.79073685  0.15312088  0.10039241    -0.72400
V1045       V  0.77599354  0.21510877  0.07782038     1.35200
V1046       V  0.74383217  0.15688036  0.09706283     1.35200
C1047       C  0.82426988  0.18441900  0.09734698     0.77000
C1048       C  0.69452140  0.18320618  0.07616910     0.77100
C1049       C  0.76127224  0.21627968  0.15054102     0.77000
C1050       C  0.75364971  0.16265370  0.02154970     0.76900
O1051       O  0.72760103  0.21738571  0.91212396    -0.72200
O1052       O  0.82093154  0.21248845  0.93945474    -0.72400
O1053       O  0.80006253  0.23798666  0.88095311    -0.72300
O1054       O  0.75182675  0.19668976  0.97144137    -0.72300
O1055       O  0.73765872  0.13655287  0.95721693    -0.72300
O1056       O  0.76346100  0.17911336  0.85672185    -0.72300
O1057       O  0.79584403  0.15607617  0.90953558    -0.72200
O1058       O  0.69772406  0.15312947  0.90312387    -0.72400
V1059       V  0.77446251  0.21511679  0.92569783     1.35200
V1060       V  0.74839049  0.15689160  0.90644844     1.35200
C1061       C  0.69549347  0.18442791  0.90617369     0.77000
C1062       C  0.82402961  0.18321638  0.92734582     0.77100
C1063       C  0.79035388  0.21629868  0.85297683     0.77000
C1064       C  0.74434495  0.16265493  0.98196271     0.76900
O1065       O  0.87678106  0.06835716  0.75807695    -0.72200
O1066       O  0.87189995  0.16170160  0.73074371    -0.72400
O1067       O  0.89733627  0.14079686  0.78925453    -0.72300
O1068       O  0.85615424  0.09262033  0.69874292    -0.72300
O1069       O  0.79599253  0.07841709  0.71291114    -0.72300
O1070       O  0.83843614  0.10417885  0.81343940    -0.72300
O1071       O  0.81544598  0.13657738  0.76060560    -0.72200
O1072       O  0.81251623  0.03846881  0.76703093    -0.72400
V1073       V  0.87452021  0.11522497  0.74449794     1.35200
V1074       V  0.81627136  0.08913020  0.76369749     1.35200
C1075       C  0.84381959  0.03624471  0.76401170     0.77000
C1076       C  0.84261144  0.16478501  0.74283310     0.77100
C1077       C  0.87561693  0.13107043  0.81721161     0.77000
C1078       C  0.82212739  0.08512217  0.68818931     0.76900
O1079       O  0.87693359  0.16586626  0.57876215    -0.72200
O1080       O  0.87199995  0.06762271  0.60610135    -0.72400
O1081       O  0.89752383  0.11399210  0.54758735    -0.72300
O1082       O  0.85621303  0.12093290  0.63807175    -0.72300
O1083       O  0.79606571  0.07499099  0.62384491    -0.72300
O1084       O  0.83865523  0.09170047  0.52335483    -0.72300
O1085       O  0.81558258  0.03629322  0.57620096    -0.72200
O1086       O  0.81268434  0.13149174  0.56973424    -0.72400
V1087       V  0.87464594  0.11672483  0.59233225     1.35200
V1088       V  0.81642359  0.08457555  0.57308052     1.35200
C1089       C  0.84398028  0.16501990  0.57281675     0.77000
C1090       C  0.84271774  0.03524801  0.59401308     0.77100
C1091       C  0.87583974  0.10198922  0.51961222     0.77000
C1092       C  0.82216338  0.09440222  0.64859126     0.76900
O1093       O  0.80816739  0.29807175  0.75813564    -0.72200
O1094       O  0.81311479  0.20476696  0.73079458    -0.72400
O1095       O  0.78762887  0.22562775  0.78932216    -0.72300
O1096       O  0.82884800  0.27383734  0.69882293    -0.72300
O1097       O  0.88902628  0.28811808  0.71300363    -0.72300
O1098       O  0.84651925  0.26222440  0.81351334    -0.72300
O1099       O  0.86957170  0.22990318  0.76063338    -0.72200
O1100       O  0.87242153  0.32797620  0.76714000    -0.72400
V1101       V  0.81046348  0.25122001  0.74456764     1.35200
V1102       V  0.86870623  0.27733266  0.76377700     1.35200
C1103       C  0.84112036  0.33019295  0.76405899     0.77000
C1104       C  0.84241783  0.20169893  0.74285012     0.77100
C1105       C  0.80934071  0.23532028  0.81727758     0.77000
C1106       C  0.86290455  0.28140617  0.68827954     0.76900
O1107       O  0.80831847  0.20085891  0.57875111    -0.72200
O1108       O  0.81321132  0.29909443  0.60608804    -0.72400
O1109       O  0.78781432  0.25277032  0.54755932    -0.72300
O1110       O  0.82890318  0.24573775  0.63808967    -0.72300
O1111       O  0.88909842  0.29166589  0.62396751    -0.72300
O1112       O  0.84673831  0.27508491  0.52341846    -0.72300
O1113       O  0.86971000  0.33043742  0.57629643    -0.72200
O1114       O  0.87258687  0.23523375  0.56981455    -0.72400
V1115       V  0.81058661  0.24999514  0.59232795     1.35200
V1116       V  0.86885684  0.28215132  0.57317224     1.35200
C1117       C  0.84128061  0.20170562  0.57283522     0.77000
C1118       C  0.84252331  0.33147350  0.59403747     0.77100
C1119       C  0.80956282  0.26479669  0.51962385     0.77000
C1120       C  0.86293861  0.27223077  0.64866589     0.76900
O1121       O  0.82523802  0.29804420  0.24538070    -0.72200
O1122       O  0.72698623  0.20473627  0.27272798    -0.72400
O1123       O  0.77332587  0.22560192  0.21419422    -0.72300
O1124       O  0.78033142  0.27380311  0.30469872    -0.72300
O1125       O  0.73443163  0.28808232  0.29053061    -0.72300
O1126       O  0.75102803  0.26219462  0.19001191    -0.72300
O1127       O  0.69566033  0.22987066  0.24289977    -0.72200
O1128       O  0.79088464  0.32794303  0.23638704    -0.72400
V1129       V  0.77609065  0.25119047  0.25895164     1.35200
V1130       V  0.74395653  0.27729964  0.23975280     1.35200
C1131       C  0.82440497  0.33016430  0.23946231     0.77000
C1132       C  0.69461239  0.20166787  0.26067964     0.77100
C1133       C  0.76130418  0.23529506  0.18624255     0.77000
C1134       C  0.75384730  0.28137170  0.31525000     0.76900
O1135       O  0.72791448  0.20084672  0.42478302    -0.72200
O1136       O  0.82125361  0.29908711  0.39744358    -0.72400
O1137       O  0.80033256  0.25276817  0.45597418    -0.72300
O1138       O  0.75220553  0.24572226  0.36544372    -0.72300
O1139       O  0.73792586  0.29163764  0.37956480    -0.72300
O1140       O  0.76371994  0.27507602  0.48011408    -0.72300
O1141       O  0.79609168  0.33042326  0.42723127    -0.72200
O1142       O  0.69801586  0.23521230  0.43372249    -0.72400
V1143       V  0.77478155  0.24998577  0.41120556     1.35200
V1144       V  0.74866133  0.28213319  0.43036034     1.35200
C1145       C  0.69579740  0.20168826  0.43069854     0.77000
C1146       C  0.82431567  0.33146341  0.40949084     0.77100
C1147       C  0.79061007  0.26479376  0.48390935     0.77000
C1148       C  0.74465255  0.27220553  0.35486697     0.76900
O1149       O  0.86023725  0.06832265  0.24545269    -0.72200
O1150       O  0.95846615  0.16166959  0.27278648    -0.72400
O1151       O  0.91211999  0.14076615  0.21427578    -0.72300
O1152       O  0.90513469  0.09258674  0.30478727    -0.72300
O1153       O  0.95109442  0.07839162  0.29060836    -0.72300
O1154       O  0.93440480  0.10415806  0.19008394    -0.72300
O1155       O  0.98979692  0.13655380  0.24291779    -0.72200
O1156       O  0.89461753  0.03844390  0.23648843    -0.72400
V1157       V  0.90936780  0.11519234  0.25903190     1.35200
V1158       V  0.94152392  0.08910640  0.23982418     1.35200
C1159       C  0.86108874  0.03621509  0.23951144     0.77000
C1160       C  0.99083936  0.16475641  0.26069562     0.77100
C1161       C  0.92411378  0.13104640  0.18631593     0.77000
C1162       C  0.93166912  0.08509443  0.31533541     0.76900
O1163       O  0.95763868  0.16585016  0.42476592    -0.72200
O1164       O  0.86432140  0.06760917  0.39742524    -0.72400
O1165       O  0.88517191  0.11397834  0.45593890    -0.72300
O1166       O  0.93342146  0.12091954  0.36545253    -0.72300
O1167       O  0.94761417  0.07497300  0.37967843    -0.72300
O1168       O  0.92175399  0.09169702  0.48017271    -0.72300
O1169       O  0.88940654  0.03628440  0.42733208    -0.72200
O1170       O  0.98751261  0.13147750  0.43378583    -0.72400
V1171       V  0.91078143  0.11671104  0.41119383     1.35200
V1172       V  0.93685228  0.08456390  0.43044519     1.35200
C1173       C  0.98974576  0.16500363  0.43071053     0.77000
C1174       C  0.86122764  0.03523746  0.40951594     0.77100
C1175       C  0.89486010  0.10198436  0.48391569     0.77000
C1176       C  0.94092875  0.09438276  0.35493144     0.76900
O1177       O  0.86011907  0.48209540  0.09147489    -0.72200
O1178       O  0.95836794  0.48702603  0.06413196    -0.72400
O1179       O  0.91204046  0.46159554  0.12266957    -0.72300
O1180       O  0.90501009  0.50271355  0.03214941    -0.72300
O1181       O  0.95090618  0.56291709  0.04628023    -0.72300
O1182       O  0.93435981  0.52051257  0.14681957    -0.72300
O1183       O  0.98970567  0.54352398  0.09391664    -0.72200
O1184       O  0.89447864  0.54635863  0.10044224    -0.72400
V1185       V  0.90926502  0.48438318  0.07790387     1.35200
V1186       V  0.94140757  0.54264927  0.09706901     1.35200
C1187       C  0.86095527  0.51505311  0.09738427     0.77000
C1188       C  0.99074659  0.51634524  0.07616669     0.77100
C1189       C  0.92408025  0.48333785  0.15060757     0.77000
C1190       C  0.93147934  0.53676505  0.02157875     0.76900
O1191       O  0.95731584  0.48210484  0.91205140    -0.72200
O1192       O  0.86399746  0.48703584  0.93939115    -0.72400
O1193       O  0.88489615  0.46161162  0.88085539    -0.72300
O1194       O  0.93304227  0.50271707  0.97137874    -0.72300
O1195       O  0.94736046  0.56292287  0.95725425    -0.72300
O1196       O  0.92150646  0.52053133  0.85671164    -0.72300
O1197       O  0.88917068  0.54353751  0.90961221    -0.72200
O1198       O  0.98723087  0.54636944  0.90309125    -0.72400
V1199       V  0.91045834  0.48439318  0.92562246     1.35200
V1200       V  0.93659337  0.54266169  0.90646337     1.35200
C1201       C  0.98944266  0.51506235  0.90614278     0.77000
C1202       C  0.86094408  0.51635626  0.92735556     0.77100
C1203       C  0.89460528  0.48335680  0.85292075     0.77000
C1204       C  0.94062917  0.53676803  0.98195333     0.76900
O1205       O  0.82512471  0.55071087  0.09139545    -0.72200
O1206       O  0.72689585  0.54581442  0.06406408    -0.72400
O1207       O  0.77326198  0.57130580  0.12256750    -0.72300
O1208       O  0.78020358  0.53002170  0.03207399    -0.72300
O1209       O  0.73423087  0.46988095  0.04629221    -0.72300
O1210       O  0.75097637  0.51242825  0.14679131    -0.72300
O1211       O  0.69556229  0.48939443  0.09397159    -0.72200
O1212       O  0.79073683  0.48645421  0.10039248    -0.72400
V1213       V  0.77599355  0.54844211  0.07782040     1.35200
V1214       V  0.74383206  0.49021367  0.09706282     1.35200
C1215       C  0.82426971  0.51775208  0.09734698     0.77000
C1216       C  0.69452049  0.51653952  0.07616906     0.77100
C1217       C  0.76127227  0.54961311  0.15054111     0.77000
C1218       C  0.75364987  0.49598715  0.02154973     0.76900
O1219       O  0.72760120  0.55071904  0.91212399    -0.72200
O1220       O  0.82093141  0.54582173  0.93945467    -0.72400
O1221       O  0.80006249  0.57131987  0.88095304    -0.72300
O1222       O  0.75182677  0.53002307  0.97144142    -0.72300
O1223       O  0.73765861  0.46988615  0.95721690    -0.72300
O1224       O  0.76346067  0.51244648  0.85672191    -0.72300
O1225       O  0.79584380  0.48940930  0.90953545    -0.72200
O1226       O  0.69772410  0.48646267  0.90312390    -0.72400
V1227       V  0.77446256  0.54845014  0.92569784     1.35200
V1228       V  0.74839048  0.49022493  0.90644842     1.35200
C1229       C  0.69549303  0.51776124  0.90617373     0.77000
C1230       C  0.82403036  0.51655002  0.92734604     0.77100
C1231       C  0.79035427  0.54963252  0.85297684     0.77000
C1232       C  0.74434495  0.49598833  0.98196267     0.76900
O1233       O  0.87678104  0.40169050  0.75807697    -0.72200
O1234       O  0.87189981  0.49503502  0.73074371    -0.72400
O1235       O  0.89733615  0.47413018  0.78925454    -0.72300
O1236       O  0.85615413  0.42595364  0.69874295    -0.72300
O1237       O  0.79599243  0.41175041  0.71291107    -0.72300
O1238       O  0.83843603  0.43751219  0.81343939    -0.72300
O1239       O  0.81544591  0.46991073  0.76060561    -0.72200
O1240       O  0.81251621  0.37180214  0.76703095    -0.72400
V1241       V  0.87452018  0.44855830  0.74449794     1.35200
V1242       V  0.81627135  0.42246352  0.76369744     1.35200
C1243       C  0.84381953  0.36957797  0.76401172     0.77000
C1244       C  0.84261174  0.49811814  0.74283304     0.77100
C1245       C  0.87561691  0.46440378  0.81721162     0.77000
C1246       C  0.82212740  0.41845552  0.68818931     0.76900
O1247       O  0.87693381  0.49919953  0.57876221    -0.72200
O1248       O  0.87200002  0.40095610  0.60610131    -0.72400
O1249       O  0.89752399  0.44732552  0.54758741    -0.72300
O1250       O  0.85621319  0.45426623  0.63807177    -0.72300
O1251       O  0.79606578  0.40832446  0.62384488    -0.72300
O1252       O  0.83865548  0.42503401  0.52335481    -0.72300
O1253       O  0.81558259  0.36962671  0.57620085    -0.72200
O1254       O  0.81268447  0.46482510  0.56973424    -0.72400
V1255       V  0.87464602  0.45005821  0.59233224     1.35200
V1256       V  0.81642360  0.41790894  0.57308054     1.35200
C1257       C  0.84398018  0.49835356  0.57281670     0.77000
C1258       C  0.84271807  0.36858137  0.59401328     0.77100
C1259       C  0.87583935  0.43532246  0.51961208     0.77000
C1260       C  0.82216349  0.42773561  0.64859128     0.76900
O1261       O  0.80816744  0.63140505  0.75813558    -0.72200
O1262       O  0.81311487  0.53810021  0.73079454    -0.72400
O1263       O  0.78762871  0.55896098  0.78932211    -0.72300
O1264       O  0.82884813  0.60717064  0.69882289    -0.72300
O1265       O  0.88902638  0.62145145  0.71300373    -0.72300
O1266       O  0.84651897  0.59555758  0.81351339    -0.72300
O1267       O  0.86957172  0.56323652  0.76063343    -0.72200
O1268       O  0.87242165  0.66130950  0.76714006    -0.72400
V1269       V  0.81046348  0.58455333  0.74456762     1.35200
V1270       V  0.86870625  0.61066605  0.76377700     1.35200
C1271       C  0.84112028  0.66352634  0.76405897     0.77000
C1272       C  0.84241750  0.53503241  0.74285003     0.77100
C1273       C  0.80934137  0.56865395  0.81727764     0.77000
C1274       C  0.86290426  0.61473944  0.68827939     0.76900
O1275       O  0.80831869  0.53419225  0.57875105    -0.72200
O1276       O  0.81321154  0.63242780  0.60608806    -0.72400
O1277       O  0.78781438  0.58610369  0.54755931    -0.72300
O1278       O  0.82890335  0.57907112  0.63808969    -0.72300
O1279       O  0.88909849  0.62499920  0.62396749    -0.72300
O1280       O  0.84673826  0.60841827  0.52341843    -0.72300
O1281       O  0.86971017  0.66377081  0.57629639    -0.72200
O1282       O  0.87258705  0.56856726  0.56981449    -0.72400
V1283       V  0.81058671  0.58332846  0.59232796     1.35200
V1284       V  0.86885681  0.61548466  0.57317227     1.35200
C1285       C  0.84128039  0.53503864  0.57283527     0.77000
C1286       C  0.84252306  0.66480683  0.59403764     0.77100
C1287       C  0.80956306  0.59813000  0.51962406     0.77000
C1288       C  0.86293851  0.60556396  0.64866587     0.76900
O1289       O  0.82523802  0.63137777  0.24538071    -0.72200
O1290       O  0.72698637  0.53806967  0.27272797    -0.72400
O1291       O  0.77332613  0.55893547  0.21419424    -0.72300
O1292       O  0.78033171  0.60713660  0.30469862    -0.72300
O1293       O  0.73443169  0.62141554  0.29053069    -0.72300
O1294       O  0.75102799  0.59552793  0.19001193    -0.72300
O1295       O  0.69566034  0.56320393  0.24289977    -0.72200
O1296       O  0.79088451  0.66127642  0.23638703    -0.72400
V1297       V  0.77609076  0.58452392  0.25895169     1.35200
V1298       V  0.74395650  0.61063290  0.23975280     1.35200
C1299       C  0.82440485  0.66349755  0.23946232     0.77000
C1300       C  0.69461237  0.53500120  0.26067958     0.77100
C1301       C  0.76130423  0.56862844  0.18624253     0.77000
C1302       C  0.75384666  0.61470520  0.31524997     0.76900
O1303       O  0.72791470  0.53418022  0.42478311    -0.72200
O1304       O  0.82125377  0.63242070  0.39744348    -0.72400
O1305       O  0.80033271  0.58610178  0.45597409    -0.72300
O1306       O  0.75220565  0.57905562  0.36544381    -0.72300
O1307       O  0.73792588  0.62497098  0.37956480    -0.72300
O1308       O  0.76371993  0.60840940  0.48011409    -0.72300
O1309       O  0.79609185  0.66375673  0.42723135    -0.72200
O1310       O  0.69801613  0.56854600  0.43372242    -0.72400
V1311       V  0.77478166  0.58331928  0.41120555     1.35200
V1312       V  0.74866138  0.61546661  0.43036036     1.35200
C1313       C  0.69579727  0.53502086  0.43069850     0.77000
C1314       C  0.82431582  0.66479684  0.40949079     0.77100
C1315       C  0.79061028  0.59812718  0.48390944     0.77000
C1316       C  0.74465259  0.60553904  0.35486683     0.76900
O1317       O  0.86023726  0.40165584  0.24545269    -0.72200
O1318       O  0.95846645  0.49500295  0.27278644    -0.72400
O1319       O  0.91212016  0.47409946  0.21427583    -0.72300
O1320       O  0.90513491  0.42592000  0.30478751    -0.72300
O1321       O  0.95109464  0.41172507  0.29060865    -0.72300
O1322       O  0.93440488  0.43749123  0.19008403    -0.72300
O1323       O  0.98979710  0.46988719  0.24291769    -0.72200
O1324       O  0.89461756  0.37177714  0.23648846    -0.72400
V1325       V  0.90936779  0.44852563  0.25903193     1.35200
V1326       V  0.94152397  0.42243976  0.23982418     1.35200
C1327       C  0.86108875  0.36954837  0.23951156     0.77000
C1328       C  0.99083895  0.49808978  0.26069584     0.77100
C1329       C  0.92411365  0.46437989  0.18631611     0.77000
C1330       C  0.93166884  0.41842780  0.31533435     0.76900
O1331       O  0.95763882  0.49918360  0.42476596    -0.72200
O1332       O  0.86432143  0.40094254  0.39742522    -0.72400
O1333       O  0.88517209  0.44731170  0.45593892    -0.72300
O1334       O  0.93342157  0.45425288  0.36545245    -0.72300
O1335       O  0.94761418  0.40830628  0.37967822    -0.72300
O1336       O  0.92175426  0.42503028  0.48017260    -0.72300
O1337       O  0.88940654  0.36961776  0.42733212    -0.72200
O1338       O  0.98751263  0.46481086  0.43378587    -0.72400
V1339       V  0.91078145  0.45004443  0.41119382     1.35200
V1340       V  0.93685227  0.41789722  0.43044517     1.35200
C1341       C  0.98974586  0.49833702  0.43071050     0.77000
C1342       C  0.86122769  0.36857080  0.40951588     0.77100
C1343       C  0.89485962  0.43531795  0.48391582     0.77000
C1344       C  0.94092873  0.42771602  0.35493202     0.76900
O1345       O  0.86011890  0.81542881  0.09147487    -0.72200
O1346       O  0.95836784  0.82035939  0.06413203    -0.72400
O1347       O  0.91204036  0.79492887  0.12266954    -0.72300
O1348       O  0.90500997  0.83604681  0.03214936    -0.72300
O1349       O  0.95090603  0.89625033  0.04628021    -0.72300
O1350       O  0.93435976  0.85384595  0.14681950    -0.72300
O1351       O  0.98970545  0.87685738  0.09391661    -0.72200
O1352       O  0.89447828  0.87969187  0.10044232    -0.72400
V1353       V  0.90926493  0.81771652  0.07790387     1.35200
V1354       V  0.94140744  0.87598258  0.09706904     1.35200
C1355       C  0.86095587  0.84838675  0.09738427     0.77000
C1356       C  0.99074645  0.84967851  0.07616652     0.77100
C1357       C  0.92408023  0.81667102  0.15060765     0.77000
C1358       C  0.93147945  0.87009859  0.02157886     0.76900
O1359       O  0.95731597  0.81543824  0.91205138    -0.72200
O1360       O  0.86399746  0.82036914  0.93939117    -0.72400
O1361       O  0.88489601  0.79494491  0.88085539    -0.72300
O1362       O  0.93304214  0.83605041  0.97137876    -0.72300
O1363       O  0.94736038  0.89625624  0.95725423    -0.72300
O1364       O  0.92150630  0.85386456  0.85671161    -0.72300
O1365       O  0.88917079  0.87687093  0.90961225    -0.72200
O1366       O  0.98723082  0.87970271  0.90309118    -0.72400
V1367       V  0.91045818  0.81772649  0.92562248     1.35200
V1368       V  0.93659323  0.87599502  0.90646339     1.35200
C1369       C  0.98944215  0.84839555  0.90614281     0.77000
C1370       C  0.86094366  0.84968955  0.92735568     0.77100
C1371       C  0.89460541  0.81669037  0.85292078     0.77000
C1372       C  0.94062914  0.87010130  0.98195333     0.76900
O1373       O  0.82512468  0.88404441  0.09139550    -0.72200
O1374       O  0.72689547  0.87914774  0.06406401    -0.72400
O1375       O  0.77326190  0.90463930  0.12256743    -0.72300
O1376       O  0.78020365  0.86335531  0.03207405    -0.72300
O1377       O  0.73423098  0.80321446  0.04629224    -0.72300
O1378       O  0.75097649  0.84576185  0.14679134    -0.72300
O1379       O  0.69556210  0.82272801  0.09397152    -0.72200
O1380       O  0.79073657  0.81978761  0.10039246    -0.72400
V1381       V  0.77599358  0.88177551  0.07782043     1.35200
V1382       V  0.74383212  0.82354706  0.09706285     1.35200
C1383       C  0.82427036  0.85108585  0.09734700     0.77000
C1384       C  0.69452147  0.84987296  0.07616919     0.77100
C1385       C  0.76127224  0.88294623  0.15054108     0.77000
C1386       C  0.75364979  0.82932043  0.02154966     0.76900
O1387       O  0.72760090  0.88405223  0.91212398    -0.72200
O1388       O  0.82093149  0.87915507  0.93945465    -0.72400
O1389       O  0.80006246  0.90465330  0.88095310    -0.72300
O1390       O  0.75182668  0.86335646  0.97144135    -0.72300
O1391       O  0.73765870  0.80321955  0.95721697    -0.72300
O1392       O  0.76346087  0.84577994  0.85672187    -0.72300
O1393       O  0.79584386  0.82274263  0.90953559    -0.72200
O1394       O  0.69772407  0.81979601  0.90312380    -0.72400
V1395       V  0.77446252  0.88178348  0.92569785     1.35200
V1396       V  0.74839051  0.82355822  0.90644844     1.35200
C1397       C  0.69549360  0.85109469  0.90617376     0.77000
C1398       C  0.82402995  0.84988346  0.92734603     0.77100
C1399       C  0.79035396  0.88296545  0.85297676     0.77000
C1400       C  0.74434503  0.82932150  0.98196273     0.76900
O1401       O  0.87678110  0.73502379  0.75807697    -0.72200
O1402       O  0.87189991  0.82836827  0.73074369    -0.72400
O1403       O  0.89733619  0.80746350  0.78925454    -0.72300
O1404       O  0.85615445  0.75928702  0.69874302    -0.72300
O1405       O  0.79599267  0.74508379  0.71291103    -0.72300
O1406       O  0.83843595  0.77084539  0.81343932    -0.72300
O1407       O  0.81544594  0.80324398  0.76060564    -0.72200
O1408       O  0.81251629  0.70513527  0.76703089    -0.72400
V1409       V  0.87452023  0.78189167  0.74449792     1.35200
V1410       V  0.81627132  0.75579680  0.76369750     1.35200
C1411       C  0.84381938  0.70291153  0.76401169     0.77000
C1412       C  0.84261138  0.83145164  0.74283312     0.77100
C1413       C  0.87561727  0.79773730  0.81721167     0.77000
C1414       C  0.82212695  0.75178882  0.68818933     0.76900
O1415       O  0.87693371  0.83253298  0.57876218    -0.72200
O1416       O  0.87200003  0.73428949  0.60610136    -0.72400
O1417       O  0.89752373  0.78065872  0.54758723    -0.72300
O1418       O  0.85621347  0.78759990  0.63807159    -0.72300
O1419       O  0.79606594  0.74165798  0.62384502    -0.72300
O1420       O  0.83865514  0.75836726  0.52335475    -0.72300
O1421       O  0.81558258  0.70296004  0.57620095    -0.72200
O1422       O  0.81268441  0.79815851  0.56973423    -0.72400
V1423       V  0.87464598  0.78339154  0.59233233     1.35200
V1424       V  0.81642357  0.75124228  0.57308045     1.35200
C1425       C  0.84398025  0.83168652  0.57281672     0.77000
C1426       C  0.84271776  0.70191465  0.59401311     0.77100
C1427       C  0.87584012  0.76865610  0.51961239     0.77000
C1428       C  0.82216209  0.76106792  0.64859133     0.76900
O1429       O  0.80816745  0.96473846  0.75813564    -0.72200
O1430       O  0.81311474  0.87143359  0.73079458    -0.72400
O1431       O  0.78762882  0.89229440  0.78932218    -0.72300
O1432       O  0.82884797  0.94050397  0.69882291    -0.72300
O1433       O  0.88902625  0.95478472  0.71300367    -0.72300
O1434       O  0.84651920  0.92889102  0.81351334    -0.72300
O1435       O  0.86957164  0.89656980  0.76063338    -0.72200
O1436       O  0.87242158  0.99464285  0.76714000    -0.72400
V1437       V  0.81046344  0.91788667  0.74456764     1.35200
V1438       V  0.86870620  0.94399928  0.76377699     1.35200
C1439       C  0.84112039  0.99685958  0.76405898     0.77000
C1440       C  0.84241778  0.86836556  0.74285011     0.77100
C1441       C  0.80934077  0.90198695  0.81727760     0.77000
C1442       C  0.86290451  0.94807283  0.68827953     0.76900
O1443       O  0.80831862  0.86752559  0.57875108    -0.72200
O1444       O  0.81321151  0.96576108  0.60608805    -0.72400
O1445       O  0.78781452  0.91943704  0.54755924    -0.72300
O1446       O  0.82890332  0.91240440  0.63808968    -0.72300
O1447       O  0.88909853  0.95833252  0.62396755    -0.72300
O1448       O  0.84673857  0.94175163  0.52341847    -0.72300
O1449       O  0.86971021  0.99710410  0.57629644    -0.72200
O1450       O  0.87258702  0.90190044  0.56981454    -0.72400
V1451       V  0.81058665  0.91666177  0.59232799     1.35200
V1452       V  0.86885687  0.94881794  0.57317227     1.35200
C1453       C  0.84128061  0.86837231  0.57283523     0.77000
C1454       C  0.84252339  0.99814018  0.59403753     0.77100
C1455       C  0.80956247  0.93146315  0.51962398     0.77000
C1456       C  0.86293863  0.93889737  0.64866588     0.76900
O1457       O  0.82523813  0.96471114  0.24538069    -0.72200
O1458       O  0.72698609  0.87140286  0.27272788    -0.72400
O1459       O  0.77332608  0.89226883  0.21419417    -0.72300
O1460       O  0.78033154  0.94046991  0.30469870    -0.72300
O1461       O  0.73443166  0.95474895  0.29053062    -0.72300
O1462       O  0.75102792  0.92886132  0.19001197    -0.72300
O1463       O  0.69566030  0.89653728  0.24289975    -0.72200
O1464       O  0.79088462  0.99460976  0.23638699    -0.72400
V1465       V  0.77609080  0.91785730  0.25895163     1.35200
V1466       V  0.74395656  0.94396626  0.23975282     1.35200
C1467       C  0.82440494  0.99683095  0.23946225     0.77000
C1468       C  0.69461303  0.86833455  0.26067990     0.77100
C1469       C  0.76130440  0.90196167  0.18624264     0.77000
C1470       C  0.75384738  0.94803847  0.31524996     0.76900
O1471       O  0.72791484  0.86751370  0.42478304    -0.72200
O1472       O  0.82125359  0.96575378  0.39744349    -0.72400
O1473       O  0.80033270  0.91943501  0.45597405    -0.72300
O1474       O  0.75220557  0.91238902  0.36544375    -0.72300
O1475       O  0.73792577  0.95830432  0.37956478    -0.72300
O1476       O  0.76372001  0.94174265  0.48011413    -0.72300
O1477       O  0.79609158  0.99708983  0.42723143    -0.72200
O1478       O  0.69801612  0.90187941  0.43372239    -0.72400
V1479       V  0.77478162  0.91665256  0.41120556     1.35200
V1480       V  0.74866128  0.94879986  0.43036032     1.35200
C1481       C  0.69579670  0.86835405  0.43069856     0.77000
C1482       C  0.82431611  0.99813050  0.40949082     0.77100
C1483       C  0.79060995  0.93146069  0.48390957     0.77000
C1484       C  0.74465261  0.93887232  0.35486693     0.76900
O1485       O  0.86023723  0.73498923  0.24545272    -0.72200
O1486       O  0.95846619  0.82833628  0.27278651    -0.72400
O1487       O  0.91211999  0.80743277  0.21427577    -0.72300
O1488       O  0.90513465  0.75925340  0.30478740    -0.72300
O1489       O  0.95109440  0.74505839  0.29060869    -0.72300
O1490       O  0.93440477  0.77082458  0.19008403    -0.72300
O1491       O  0.98979696  0.80322055  0.24291779    -0.72200
O1492       O  0.89461747  0.70511048  0.23648842    -0.72400
V1493       V  0.90936778  0.78185899  0.25903194     1.35200
V1494       V  0.94152393  0.75577308  0.23982417     1.35200
C1495       C  0.86108884  0.70288182  0.23951151     0.77000
C1496       C  0.99083934  0.83142311  0.26069557     0.77100
C1497       C  0.92411361  0.79771322  0.18631606     0.77000
C1498       C  0.93166927  0.75176102  0.31533453     0.76900
O1499       O  0.95763881  0.83251703  0.42476597    -0.72200
O1500       O  0.86432148  0.73427607  0.39742526    -0.72400
O1501       O  0.88517197  0.78064519  0.45593888    -0.72300
O1502       O  0.93342157  0.78758641  0.36545251    -0.72300
O1503       O  0.94761413  0.74163979  0.37967813    -0.72300
O1504       O  0.92175389  0.75836370  0.48017271    -0.72300
O1505       O  0.88940662  0.70295124  0.42733209    -0.72200
O1506       O  0.98751270  0.79814439  0.43378586    -0.72400
V1507       V  0.91078151  0.78337781  0.41119389     1.35200
V1508       V  0.93685227  0.75123058  0.43044516     1.35200
C1509       C  0.98974600  0.83167020  0.43071056     0.77000
C1510       C  0.86122756  0.70190411  0.40951587     0.77100
C1511       C  0.89486027  0.76865096  0.48391583     0.77000
C1512       C  0.94092873  0.76104921  0.35493204     0.76900
loop_ 
_geom_bond_atom_site_label_1 
_geom_bond_atom_site_label_2 
_geom_bond_distance 
_geom_bond_site_symmetry_2 
_ccdc_geom_bond_type 
O1            V9   1.917       .  S
O1           C11   1.273       .  A
O2            V9   1.911       .  S
O2           C12   1.272       .  A
O3            V9   1.876       .  S
O3           C13   1.248       .  A
O4            V9   1.845       .  S
O4           C14   1.254       .  A
O5           V10   1.965       .  S
O5           C14   1.276       .  A
O6           V10   1.958       .  S
O6           C13   1.290       .  A
O7           V10   1.850       .  S
O7           C12   1.248       .  A
O8           V10   1.890       .  S
O8           C11   1.257       .  A
V9           V10   2.070       .  T
C11          C39   1.470       .  S
C12         C544   1.427       .  S
C13         C153   1.489       .  S
C14          C28   1.481   1_554  S
O15          V23   1.917       .  S
O15          C25   1.273       .  A
O16          V23   1.911       .  S
O16          C26   1.272       .  A
O17          V23   1.876       .  S
O17          C27   1.248       .  A
O18          V23   1.845       .  S
O18          C28   1.254       .  A
O19          V24   1.965       .  S
O19          C28   1.276       .  A
O20          V24   1.958       .  S
O20          C27   1.290       .  A
O21          V24   1.850       .  S
O21          C26   1.248       .  A
O22          V24   1.890       .  S
O22          C25   1.257       .  A
V23          V24   2.070       .  T
C25         C557   1.470       .  S
C26          C54   1.427       .  S
C27          C69   1.489       .  S
O29          V37   1.917       .  S
O29          C39   1.273       .  A
O30          V37   1.912       .  S
O30          C40   1.272       .  A
O31          V37   1.877       .  S
O31          C41   1.248       .  A
O32          V37   1.845       .  S
O32          C42   1.254       .  A
O33          V38   1.965       .  S
O33          C42   1.276       .  A
O34          V38   1.958       .  S
O34          C41   1.290       .  A
O35          V38   1.850       .  S
O35          C40   1.248       .  A
O36          V38   1.890       .  S
O36          C39   1.257       .  A
V37          V38   2.070       .  T
C40        C1020   1.427   1_455  S
C41         C125   1.489       .  S
C42          C56   1.482   1_554  S
O43          V51   1.917       .  S
O43          C53   1.273       .  A
O44          V51   1.912       .  S
O44          C54   1.272       .  A
O45          V51   1.877       .  S
O45          C55   1.248       .  A
O46          V51   1.845       .  S
O46          C56   1.254       .  A
O47          V52   1.965       .  S
O47          C56   1.276       .  A
O48          V52   1.958       .  S
O48          C55   1.290       .  A
O49          V52   1.850       .  S
O49          C54   1.248       .  A
O50          V52   1.890       .  S
O50          C53   1.257       .  A
V51          V52   2.070       .  T
C53        C1033   1.470   1_455  S
C55          C97   1.489       .  S
O57          V65   1.917       .  S
O57          C67   1.273       .  A
O58          V65   1.912       .  S
O58          C68   1.272       .  A
O59          V65   1.876       .  S
O59          C69   1.248       .  A
O60          V65   1.845       .  S
O60          C70   1.254       .  A
O61          V66   1.965       .  S
O61          C70   1.276       .  A
O62          V66   1.958       .  S
O62          C69   1.290       .  A
O63          V66   1.849       .  S
O63          C68   1.248       .  A
O64          V66   1.890       .  S
O64          C67   1.257       .  A
V65          V66   2.070       .  T
C67         C431   1.470   1_545  S
C68          C96   1.427       .  S
C70          C84   1.482       .  S
O71          V79   1.917       .  S
O71          C81   1.273       .  A
O72          V79   1.911       .  S
O72          C82   1.272       .  A
O73          V79   1.877       .  S
O73          C83   1.248       .  A
O74          V79   1.845       .  S
O74          C84   1.254       .  A
O75          V80   1.965       .  S
O75          C84   1.276       .  A
O76          V80   1.958       .  S
O76          C83   1.290       .  A
O77          V80   1.850       .  S
O77          C82   1.248       .  A
O78          V80   1.890       .  S
O78          C81   1.257       .  A
V79          V80   2.070       .  T
C81         C109   1.470       .  S
C82         C446   1.427   1_545  S
C83         C167   1.489       .  S
O85          V93   1.917       .  S
O85          C95   1.273       .  A
O86          V93   1.911       .  S
O86          C96   1.272       .  A
O87          V93   1.876       .  S
O87          C97   1.248       .  A
O88          V93   1.845       .  S
O88          C98   1.254       .  A
O89          V94   1.965       .  S
O89          C98   1.276       .  A
O90          V94   1.958       .  S
O90          C97   1.290       .  A
O91          V94   1.850       .  S
O91          C96   1.248       .  A
O92          V94   1.890       .  S
O92          C95   1.257       .  A
V93          V94   2.070       .  T
C95         C235   1.470       .  S
C98         C112   1.481       .  S
O99         V107   1.917       .  S
O99         C109   1.273       .  A
O100        V107   1.912       .  S
O100        C110   1.272       .  A
O101        V107   1.876       .  S
O101        C111   1.248       .  A
O102        V107   1.845       .  S
O102        C112   1.254       .  A
O103        V108   1.965       .  S
O103        C112   1.276       .  A
O104        V108   1.958       .  S
O104        C111   1.290       .  A
O105        V108   1.850       .  S
O105        C110   1.248       .  A
O106        V108   1.890       .  S
O106        C109   1.257       .  A
V107        V108   2.070       .  T
C110        C250   1.427       .  S
C111        C139   1.489       .  S
O113        V121   1.917       .  S
O113        C123   1.273       .  A
O114        V121   1.911       .  S
O114        C124   1.272       .  A
O115        V121   1.876       .  S
O115        C125   1.248       .  A
O116        V121   1.845       .  S
O116        C126   1.254       .  A
O117        V122   1.965       .  S
O117        C126   1.276       .  A
O118        V122   1.958       .  S
O118        C125   1.290       .  A
O119        V122   1.850       .  S
O119        C124   1.248       .  A
O120        V122   1.889       .  S
O120        C123   1.257       .  A
V121        V122   2.070       .  T
C123        C319   1.470       .  S
C124       C1160   1.427   1_455  S
C126        C140   1.481       .  S
O127        V135   1.917       .  S
O127        C137   1.273       .  A
O128        V135   1.911       .  S
O128        C138   1.272       .  A
O129        V135   1.876       .  S
O129        C139   1.248       .  A
O130        V135   1.845       .  S
O130        C140   1.254       .  A
O131        V136   1.965       .  S
O131        C140   1.276       .  A
O132        V136   1.958       .  S
O132        C139   1.290       .  A
O133        V136   1.849       .  S
O133        C138   1.248       .  A
O134        V136   1.889       .  S
O134        C137   1.257       .  A
V135        V136   2.070       .  T
C137       C1173   1.470   1_455  S
C138        C334   1.427       .  S
O141        V149   1.917       .  S
O141        C151   1.273       .  A
O142        V149   1.911       .  S
O142        C152   1.272       .  A
O143        V149   1.876       .  S
O143        C153   1.248       .  A
O144        V149   1.845       .  S
O144        C154   1.254       .  A
O145        V150   1.965       .  S
O145        C154   1.276       .  A
O146        V150   1.958       .  S
O146        C153   1.290       .  A
O147        V150   1.849       .  S
O147        C152   1.248       .  A
O148        V150   1.889       .  S
O148        C151   1.257       .  A
V149        V150   2.070       .  T
C151        C459   1.470   1_545  S
C152        C628   1.427       .  S
C154        C168   1.482       .  S
O155        V163   1.917       .  S
O155        C165   1.273       .  A
O156        V163   1.911       .  S
O156        C166   1.272       .  A
O157        V163   1.877       .  S
O157        C167   1.248       .  A
O158        V163   1.845       .  S
O158        C168   1.254       .  A
O159        V164   1.965       .  S
O159        C168   1.276       .  A
O160        V164   1.958       .  S
O160        C167   1.290       .  A
O161        V164   1.850       .  S
O161        C166   1.248       .  A
O162        V164   1.890       .  S
O162        C165   1.257       .  A
V163        V164   2.070       .  T
C165        C641   1.470       .  S
C166        C474   1.427   1_545  S
O169        V177   1.917       .  S
O169        C179   1.273       .  A
O170        V177   1.911       .  S
O170        C180   1.272       .  A
O171        V177   1.876       .  S
O171        C181   1.248       .  A
O172        V177   1.845       .  S
O172        C182   1.254       .  A
O173        V178   1.965       .  S
O173        C182   1.276       .  A
O174        V178   1.958       .  S
O174        C181   1.290       .  A
O175        V178   1.850       .  S
O175        C180   1.248       .  A
O176        V178   1.890       .  S
O176        C179   1.257       .  A
V177        V178   2.070       .  T
C179        C207   1.470       .  S
C180        C712   1.427       .  S
C181        C321   1.489       .  S
C182        C196   1.481   1_554  S
O183        V191   1.917       .  S
O183        C193   1.273       .  A
O184        V191   1.911       .  S
O184        C194   1.272       .  A
O185        V191   1.876       .  S
O185        C195   1.248       .  A
O186        V191   1.845       .  S
O186        C196   1.254       .  A
O187        V192   1.965       .  S
O187        C196   1.276       .  A
O188        V192   1.958       .  S
O188        C195   1.290       .  A
O189        V192   1.850       .  S
O189        C194   1.248       .  A
O190        V192   1.890       .  S
O190        C193   1.257       .  A
V191        V192   2.070       .  T
C193        C725   1.470       .  S
C194        C222   1.427       .  S
C195        C237   1.489       .  S
O197        V205   1.917       .  S
O197        C207   1.273       .  A
O198        V205   1.912       .  S
O198        C208   1.272       .  A
O199        V205   1.877       .  S
O199        C209   1.248       .  A
O200        V205   1.845       .  S
O200        C210   1.254       .  A
O201        V206   1.965       .  S
O201        C210   1.276       .  A
O202        V206   1.958       .  S
O202        C209   1.290       .  A
O203        V206   1.850       .  S
O203        C208   1.248       .  A
O204        V206   1.890       .  S
O204        C207   1.257       .  A
V205        V206   2.070       .  T
C208       C1188   1.427   1_455  S
C209        C293   1.489       .  S
C210        C224   1.482   1_554  S
O211        V219   1.917       .  S
O211        C221   1.273       .  A
O212        V219   1.912       .  S
O212        C222   1.272       .  A
O213        V219   1.877       .  S
O213        C223   1.248       .  A
O214        V219   1.845       .  S
O214        C224   1.254       .  A
O215        V220   1.965       .  S
O215        C224   1.276       .  A
O216        V220   1.958       .  S
O216        C223   1.290       .  A
O217        V220   1.850       .  S
O217        C222   1.248       .  A
O218        V220   1.890       .  S
O218        C221   1.257       .  A
V219        V220   2.070       .  T
C221       C1201   1.470   1_455  S
C223        C265   1.489       .  S
O225        V233   1.917       .  S
O225        C235   1.273       .  A
O226        V233   1.912       .  S
O226        C236   1.272       .  A
O227        V233   1.876       .  S
O227        C237   1.248       .  A
O228        V233   1.845       .  S
O228        C238   1.254       .  A
O229        V234   1.965       .  S
O229        C238   1.276       .  A
O230        V234   1.958       .  S
O230        C237   1.290       .  A
O231        V234   1.849       .  S
O231        C236   1.248       .  A
O232        V234   1.890       .  S
O232        C235   1.257       .  A
V233        V234   2.070       .  T
C236        C264   1.427       .  S
C238        C252   1.482       .  S
O239        V247   1.917       .  S
O239        C249   1.273       .  A
O240        V247   1.911       .  S
O240        C250   1.272       .  A
O241        V247   1.877       .  S
O241        C251   1.248       .  A
O242        V247   1.845       .  S
O242        C252   1.254       .  A
O243        V248   1.965       .  S
O243        C252   1.276       .  A
O244        V248   1.958       .  S
O244        C251   1.290       .  A
O245        V248   1.850       .  S
O245        C250   1.248       .  A
O246        V248   1.890       .  S
O246        C249   1.257       .  A
V247        V248   2.070       .  T
C249        C277   1.470       .  S
C251        C335   1.489       .  S
O253        V261   1.917       .  S
O253        C263   1.273       .  A
O254        V261   1.911       .  S
O254        C264   1.272       .  A
O255        V261   1.876       .  S
O255        C265   1.248       .  A
O256        V261   1.845       .  S
O256        C266   1.254       .  A
O257        V262   1.965       .  S
O257        C266   1.276       .  A
O258        V262   1.958       .  S
O258        C265   1.290       .  A
O259        V262   1.850       .  S
O259        C264   1.248       .  A
O260        V262   1.890       .  S
O260        C263   1.257       .  A
V261        V262   2.070       .  T
C263        C403   1.470       .  S
C266        C280   1.481       .  S
O267        V275   1.917       .  S
O267        C277   1.273       .  A
O268        V275   1.912       .  S
O268        C278   1.272       .  A
O269        V275   1.876       .  S
O269        C279   1.248       .  A
O270        V275   1.845       .  S
O270        C280   1.254       .  A
O271        V276   1.965       .  S
O271        C280   1.276       .  A
O272        V276   1.958       .  S
O272        C279   1.290       .  A
O273        V276   1.850       .  S
O273        C278   1.248       .  A
O274        V276   1.890       .  S
O274        C277   1.257       .  A
V275        V276   2.070       .  T
C278        C418   1.427       .  S
C279        C307   1.489       .  S
O281        V289   1.917       .  S
O281        C291   1.273       .  A
O282        V289   1.911       .  S
O282        C292   1.272       .  A
O283        V289   1.876       .  S
O283        C293   1.248       .  A
O284        V289   1.845       .  S
O284        C294   1.254       .  A
O285        V290   1.965       .  S
O285        C294   1.276       .  A
O286        V290   1.958       .  S
O286        C293   1.290       .  A
O287        V290   1.850       .  S
O287        C292   1.248       .  A
O288        V290   1.889       .  S
O288        C291   1.257       .  A
V289        V290   2.070       .  T
C291        C487   1.470       .  S
C292       C1328   1.427   1_455  S
C294        C308   1.481       .  S
O295        V303   1.917       .  S
O295        C305   1.273       .  A
O296        V303   1.911       .  S
O296        C306   1.272       .  A
O297        V303   1.876       .  S
O297        C307   1.248       .  A
O298        V303   1.845       .  S
O298        C308   1.254       .  A
O299        V304   1.965       .  S
O299        C308   1.276       .  A
O300        V304   1.958       .  S
O300        C307   1.290       .  A
O301        V304   1.849       .  S
O301        C306   1.248       .  A
O302        V304   1.889       .  S
O302        C305   1.257       .  A
V303        V304   2.070       .  T
C305       C1341   1.470   1_455  S
C306        C502   1.427       .  S
O309        V317   1.917       .  S
O309        C319   1.273       .  A
O310        V317   1.912       .  S
O310        C320   1.272       .  A
O311        V317   1.876       .  S
O311        C321   1.248       .  A
O312        V317   1.845       .  S
O312        C322   1.254       .  A
O313        V318   1.965       .  S
O313        C322   1.276       .  A
O314        V318   1.958       .  S
O314        C321   1.290       .  A
O315        V318   1.849       .  S
O315        C320   1.248       .  A
O316        V318   1.889       .  S
O316        C319   1.257       .  A
V317        V318   2.070       .  T
C320        C796   1.427       .  S
C322        C336   1.482       .  S
O323        V331   1.917       .  S
O323        C333   1.273       .  A
O324        V331   1.911       .  S
O324        C334   1.272       .  A
O325        V331   1.877       .  S
O325        C335   1.248       .  A
O326        V331   1.845       .  S
O326        C336   1.254       .  A
O327        V332   1.965       .  S
O327        C336   1.276       .  A
O328        V332   1.958       .  S
O328        C335   1.290       .  A
O329        V332   1.850       .  S
O329        C334   1.248       .  A
O330        V332   1.890       .  S
O330        C333   1.257       .  A
V331        V332   2.070       .  T
C333        C809   1.470       .  S
O337        V345   1.917       .  S
O337        C347   1.274       .  A
O338        V345   1.911       .  S
O338        C348   1.272       .  A
O339        V345   1.876       .  S
O339        C349   1.248       .  A
O340        V345   1.845       .  S
O340        C350   1.254       .  A
O341        V346   1.965       .  S
O341        C350   1.276       .  A
O342        V346   1.958       .  S
O342        C349   1.290       .  A
O343        V346   1.850       .  S
O343        C348   1.248       .  A
O344        V346   1.890       .  S
O344        C347   1.257       .  A
V345        V346   2.070       .  T
C347        C375   1.470       .  S
C348        C880   1.427       .  S
C349        C489   1.489       .  S
C350        C364   1.481   1_554  S
O351        V359   1.917       .  S
O351        C361   1.273       .  A
O352        V359   1.911       .  S
O352        C362   1.272       .  A
O353        V359   1.876       .  S
O353        C363   1.248       .  A
O354        V359   1.845       .  S
O354        C364   1.254       .  A
O355        V360   1.965       .  S
O355        C364   1.276       .  A
O356        V360   1.958       .  S
O356        C363   1.290       .  A
O357        V360   1.850       .  S
O357        C362   1.248       .  A
O358        V360   1.890       .  S
O358        C361   1.257       .  A
V359        V360   2.070       .  T
C361        C893   1.470       .  S
C362        C390   1.427       .  S
C363        C405   1.489       .  S
O365        V373   1.917       .  S
O365        C375   1.273       .  A
O366        V373   1.912       .  S
O366        C376   1.272       .  A
O367        V373   1.877       .  S
O367        C377   1.248       .  A
O368        V373   1.845       .  S
O368        C378   1.254       .  A
O369        V374   1.965       .  S
O369        C378   1.276       .  A
O370        V374   1.958       .  S
O370        C377   1.290       .  A
O371        V374   1.850       .  S
O371        C376   1.248       .  A
O372        V374   1.890       .  S
O372        C375   1.257       .  A
V373        V374   2.070       .  T
C376       C1356   1.427   1_455  S
C377        C461   1.489       .  S
C378        C392   1.482   1_554  S
O379        V387   1.917       .  S
O379        C389   1.273       .  A
O380        V387   1.912       .  S
O380        C390   1.272       .  A
O381        V387   1.877       .  S
O381        C391   1.248       .  A
O382        V387   1.845       .  S
O382        C392   1.254       .  A
O383        V388   1.965       .  S
O383        C392   1.276       .  A
O384        V388   1.958       .  S
O384        C391   1.290       .  A
O385        V388   1.850       .  S
O385        C390   1.248       .  A
O386        V388   1.890       .  S
O386        C389   1.257       .  A
V387        V388   2.070       .  T
C389       C1369   1.470   1_455  S
C391        C433   1.489       .  S
O393        V401   1.917       .  S
O393        C403   1.273       .  A
O394        V401   1.912       .  S
O394        C404   1.272       .  A
O395        V401   1.876       .  S
O395        C405   1.248       .  A
O396        V401   1.845       .  S
O396        C406   1.254       .  A
O397        V402   1.965       .  S
O397        C406   1.276       .  A
O398        V402   1.958       .  S
O398        C405   1.290       .  A
O399        V402   1.849       .  S
O399        C404   1.248       .  A
O400        V402   1.890       .  S
O400        C403   1.257       .  A
V401        V402   2.070       .  T
C404        C432   1.427       .  S
C406        C420   1.482       .  S
O407        V415   1.917       .  S
O407        C417   1.273       .  A
O408        V415   1.911       .  S
O408        C418   1.272       .  A
O409        V415   1.877       .  S
O409        C419   1.248       .  A
O410        V415   1.845       .  S
O410        C420   1.254       .  A
O411        V416   1.965       .  S
O411        C420   1.276       .  A
O412        V416   1.958       .  S
O412        C419   1.290       .  A
O413        V416   1.850       .  S
O413        C418   1.248       .  A
O414        V416   1.890       .  S
O414        C417   1.257       .  A
V415        V416   2.070       .  T
C417        C445   1.470       .  S
C419        C503   1.489       .  S
O421        V429   1.917       .  S
O421        C431   1.273       .  A
O422        V429   1.911       .  S
O422        C432   1.272       .  A
O423        V429   1.876       .  S
O423        C433   1.248       .  A
O424        V429   1.845       .  S
O424        C434   1.254       .  A
O425        V430   1.965       .  S
O425        C434   1.276       .  A
O426        V430   1.958       .  S
O426        C433   1.290       .  A
O427        V430   1.850       .  S
O427        C432   1.248       .  A
O428        V430   1.890       .  S
O428        C431   1.257       .  A
V429        V430   2.070       .  T
C434        C448   1.481       .  S
O435        V443   1.917       .  S
O435        C445   1.273       .  A
O436        V443   1.912       .  S
O436        C446   1.272       .  A
O437        V443   1.876       .  S
O437        C447   1.248       .  A
O438        V443   1.845       .  S
O438        C448   1.254       .  A
O439        V444   1.965       .  S
O439        C448   1.276       .  A
O440        V444   1.958       .  S
O440        C447   1.290       .  A
O441        V444   1.850       .  S
O441        C446   1.248       .  A
O442        V444   1.890       .  S
O442        C445   1.257       .  A
V443        V444   2.070       .  T
C447        C475   1.489       .  S
O449        V457   1.917       .  S
O449        C459   1.273       .  A
O450        V457   1.911       .  S
O450        C460   1.272       .  A
O451        V457   1.876       .  S
O451        C461   1.248       .  A
O452        V457   1.845       .  S
O452        C462   1.254       .  A
O453        V458   1.965       .  S
O453        C462   1.276       .  A
O454        V458   1.958       .  S
O454        C461   1.290       .  A
O455        V458   1.850       .  S
O455        C460   1.248       .  A
O456        V458   1.889       .  S
O456        C459   1.257       .  A
V457        V458   2.070       .  T
C460       C1496   1.427   1_455  S
C462        C476   1.481       .  S
O463        V471   1.917       .  S
O463        C473   1.273       .  A
O464        V471   1.911       .  S
O464        C474   1.272       .  A
O465        V471   1.876       .  S
O465        C475   1.248       .  A
O466        V471   1.845       .  S
O466        C476   1.254       .  A
O467        V472   1.965       .  S
O467        C476   1.276       .  A
O468        V472   1.958       .  S
O468        C475   1.290       .  A
O469        V472   1.849       .  S
O469        C474   1.248       .  A
O470        V472   1.889       .  S
O470        C473   1.257       .  A
V471        V472   2.070       .  T
C473       C1509   1.470   1_455  S
O477        V485   1.917       .  S
O477        C487   1.273       .  A
O478        V485   1.911       .  S
O478        C488   1.272       .  A
O479        V485   1.876       .  S
O479        C489   1.248       .  A
O480        V485   1.845       .  S
O480        C490   1.254       .  A
O481        V486   1.965       .  S
O481        C490   1.276       .  A
O482        V486   1.958       .  S
O482        C489   1.290       .  A
O483        V486   1.849       .  S
O483        C488   1.248       .  A
O484        V486   1.889       .  S
O484        C487   1.257       .  A
V485        V486   2.070       .  T
C488        C964   1.427       .  S
C490        C504   1.482       .  S
O491        V499   1.917       .  S
O491        C501   1.273       .  A
O492        V499   1.911       .  S
O492        C502   1.272       .  A
O493        V499   1.877       .  S
O493        C503   1.248       .  A
O494        V499   1.845       .  S
O494        C504   1.254       .  A
O495        V500   1.965       .  S
O495        C504   1.276       .  A
O496        V500   1.958       .  S
O496        C503   1.290       .  A
O497        V500   1.850       .  S
O497        C502   1.248       .  A
O498        V500   1.890       .  S
O498        C501   1.257       .  A
V499        V500   2.070       .  T
C501        C977   1.470       .  S
O505        V513   1.917       .  S
O505        C515   1.273       .  A
O506        V513   1.911       .  S
O506        C516   1.272       .  A
O507        V513   1.876       .  S
O507        C517   1.248       .  A
O508        V513   1.845       .  S
O508        C518   1.254       .  A
O509        V514   1.965       .  S
O509        C518   1.276       .  A
O510        V514   1.958       .  S
O510        C517   1.290       .  A
O511        V514   1.850       .  S
O511        C516   1.248       .  A
O512        V514   1.890       .  S
O512        C515   1.257       .  A
V513        V514   2.070       .  T
C515        C543   1.470       .  S
C516       C1048   1.427       .  S
C517        C657   1.489       .  S
C518        C532   1.481   1_554  S
O519        V527   1.917       .  S
O519        C529   1.273       .  A
O520        V527   1.911       .  S
O520        C530   1.272       .  A
O521        V527   1.876       .  S
O521        C531   1.248       .  A
O522        V527   1.845       .  S
O522        C532   1.254       .  A
O523        V528   1.965       .  S
O523        C532   1.276       .  A
O524        V528   1.958       .  S
O524        C531   1.290       .  A
O525        V528   1.850       .  S
O525        C530   1.248       .  A
O526        V528   1.890       .  S
O526        C529   1.257       .  A
V527        V528   2.070       .  T
C529       C1061   1.470       .  S
C530        C558   1.427       .  S
C531        C573   1.489       .  S
O533        V541   1.917       .  S
O533        C543   1.273       .  A
O534        V541   1.912       .  S
O534        C544   1.272       .  A
O535        V541   1.877       .  S
O535        C545   1.248       .  A
O536        V541   1.845       .  S
O536        C546   1.254       .  A
O537        V542   1.965       .  S
O537        C546   1.276       .  A
O538        V542   1.958       .  S
O538        C545   1.290       .  A
O539        V542   1.850       .  S
O539        C544   1.248       .  A
O540        V542   1.890       .  S
O540        C543   1.257       .  A
V541        V542   2.070       .  T
C545        C629   1.489       .  S
C546        C560   1.482   1_554  S
O547        V555   1.917       .  S
O547        C557   1.273       .  A
O548        V555   1.912       .  S
O548        C558   1.272       .  A
O549        V555   1.877       .  S
O549        C559   1.248       .  A
O550        V555   1.845       .  S
O550        C560   1.254       .  A
O551        V556   1.965       .  S
O551        C560   1.276       .  A
O552        V556   1.958       .  S
O552        C559   1.290       .  A
O553        V556   1.850       .  S
O553        C558   1.248       .  A
O554        V556   1.890       .  S
O554        C557   1.257       .  A
V555        V556   2.070       .  T
C559        C601   1.489       .  S
O561        V569   1.917       .  S
O561        C571   1.273       .  A
O562        V569   1.912       .  S
O562        C572   1.272       .  A
O563        V569   1.876       .  S
O563        C573   1.248       .  A
O564        V569   1.845       .  S
O564        C574   1.254       .  A
O565        V570   1.965       .  S
O565        C574   1.276       .  A
O566        V570   1.958       .  S
O566        C573   1.290       .  A
O567        V570   1.849       .  S
O567        C572   1.248       .  A
O568        V570   1.890       .  S
O568        C571   1.257       .  A
V569        V570   2.070       .  T
C571        C935   1.470   1_545  S
C572        C600   1.427       .  S
C574        C588   1.482       .  S
O575        V583   1.917       .  S
O575        C585   1.273       .  A
O576        V583   1.911       .  S
O576        C586   1.272       .  A
O577        V583   1.877       .  S
O577        C587   1.248       .  A
O578        V583   1.845       .  S
O578        C588   1.254       .  A
O579        V584   1.965       .  S
O579        C588   1.276       .  A
O580        V584   1.958       .  S
O580        C587   1.290       .  A
O581        V584   1.850       .  S
O581        C586   1.248       .  A
O582        V584   1.890       .  S
O582        C585   1.257       .  A
V583        V584   2.070       .  T
C585        C613   1.470       .  S
C586        C950   1.427   1_545  S
C587        C671   1.489       .  S
O589        V597   1.917       .  S
O589        C599   1.273       .  A
O590        V597   1.911       .  S
O590        C600   1.272       .  A
O591        V597   1.876       .  S
O591        C601   1.248       .  A
O592        V597   1.845       .  S
O592        C602   1.254       .  A
O593        V598   1.965       .  S
O593        C602   1.276       .  A
O594        V598   1.958       .  S
O594        C601   1.290       .  A
O595        V598   1.850       .  S
O595        C600   1.248       .  A
O596        V598   1.890       .  S
O596        C599   1.257       .  A
V597        V598   2.070       .  T
C599        C739   1.470       .  S
C602        C616   1.481       .  S
O603        V611   1.917       .  S
O603        C613   1.274       .  A
O604        V611   1.912       .  S
O604        C614   1.272       .  A
O605        V611   1.876       .  S
O605        C615   1.248       .  A
O606        V611   1.845       .  S
O606        C616   1.254       .  A
O607        V612   1.965       .  S
O607        C616   1.276       .  A
O608        V612   1.958       .  S
O608        C615   1.290       .  A
O609        V612   1.850       .  S
O609        C614   1.248       .  A
O610        V612   1.890       .  S
O610        C613   1.257       .  A
V611        V612   2.070       .  T
C614        C754   1.427       .  S
C615        C643   1.489       .  S
O617        V625   1.917       .  S
O617        C627   1.273       .  A
O618        V625   1.911       .  S
O618        C628   1.272       .  A
O619        V625   1.876       .  S
O619        C629   1.248       .  A
O620        V625   1.845       .  S
O620        C630   1.254       .  A
O621        V626   1.965       .  S
O621        C630   1.276       .  A
O622        V626   1.958       .  S
O622        C629   1.290       .  A
O623        V626   1.850       .  S
O623        C628   1.248       .  A
O624        V626   1.889       .  S
O624        C627   1.257       .  A
V625        V626   2.070       .  T
C627        C823   1.470       .  S
C630        C644   1.481       .  S
O631        V639   1.917       .  S
O631        C641   1.273       .  A
O632        V639   1.911       .  S
O632        C642   1.272       .  A
O633        V639   1.876       .  S
O633        C643   1.248       .  A
O634        V639   1.845       .  S
O634        C644   1.254       .  A
O635        V640   1.965       .  S
O635        C644   1.276       .  A
O636        V640   1.958       .  S
O636        C643   1.290       .  A
O637        V640   1.849       .  S
O637        C642   1.248       .  A
O638        V640   1.889       .  S
O638        C641   1.257       .  A
V639        V640   2.070       .  T
C642        C838   1.427       .  S
O645        V653   1.917       .  S
O645        C655   1.273       .  A
O646        V653   1.911       .  S
O646        C656   1.272       .  A
O647        V653   1.876       .  S
O647        C657   1.248       .  A
O648        V653   1.845       .  S
O648        C658   1.254       .  A
O649        V654   1.965       .  S
O649        C658   1.276       .  A
O650        V654   1.958       .  S
O650        C657   1.290       .  A
O651        V654   1.849       .  S
O651        C656   1.248       .  A
O652        V654   1.889       .  S
O652        C655   1.257       .  A
V653        V654   2.070       .  T
C655        C963   1.470   1_545  S
C656       C1132   1.427       .  S
C658        C672   1.482       .  S
O659        V667   1.917       .  S
O659        C669   1.273       .  A
O660        V667   1.911       .  S
O660        C670   1.272       .  A
O661        V667   1.877       .  S
O661        C671   1.248       .  A
O662        V667   1.845       .  S
O662        C672   1.254       .  A
O663        V668   1.965       .  S
O663        C672   1.276       .  A
O664        V668   1.958       .  S
O664        C671   1.290       .  A
O665        V668   1.850       .  S
O665        C670   1.248       .  A
O666        V668   1.890       .  S
O666        C669   1.257       .  A
V667        V668   2.070       .  T
C669       C1145   1.470       .  S
C670        C978   1.427   1_545  S
O673        V681   1.917       .  S
O673        C683   1.273       .  A
O674        V681   1.911       .  S
O674        C684   1.272       .  A
O675        V681   1.876       .  S
O675        C685   1.248       .  A
O676        V681   1.845       .  S
O676        C686   1.254       .  A
O677        V682   1.965       .  S
O677        C686   1.276       .  A
O678        V682   1.958       .  S
O678        C685   1.290       .  A
O679        V682   1.850       .  S
O679        C684   1.248       .  A
O680        V682   1.890       .  S
O680        C683   1.257       .  A
V681        V682   2.070       .  T
C683        C711   1.470       .  S
C684       C1216   1.427       .  S
C685        C825   1.489       .  S
C686        C700   1.481   1_554  S
O687        V695   1.917       .  S
O687        C697   1.273       .  A
O688        V695   1.911       .  S
O688        C698   1.272       .  A
O689        V695   1.876       .  S
O689        C699   1.248       .  A
O690        V695   1.845       .  S
O690        C700   1.254       .  A
O691        V696   1.965       .  S
O691        C700   1.276       .  A
O692        V696   1.958       .  S
O692        C699   1.290       .  A
O693        V696   1.850       .  S
O693        C698   1.248       .  A
O694        V696   1.890       .  S
O694        C697   1.257       .  A
V695        V696   2.070       .  T
C697       C1229   1.470       .  S
C698        C726   1.427       .  S
C699        C741   1.489       .  S
O701        V709   1.917       .  S
O701        C711   1.273       .  A
O702        V709   1.912       .  S
O702        C712   1.272       .  A
O703        V709   1.877       .  S
O703        C713   1.248       .  A
O704        V709   1.845       .  S
O704        C714   1.254       .  A
O705        V710   1.965       .  S
O705        C714   1.276       .  A
O706        V710   1.958       .  S
O706        C713   1.290       .  A
O707        V710   1.850       .  S
O707        C712   1.248       .  A
O708        V710   1.890       .  S
O708        C711   1.257       .  A
V709        V710   2.070       .  T
C713        C797   1.489       .  S
C714        C728   1.482   1_554  S
O715        V723   1.917       .  S
O715        C725   1.273       .  A
O716        V723   1.912       .  S
O716        C726   1.272       .  A
O717        V723   1.877       .  S
O717        C727   1.248       .  A
O718        V723   1.845       .  S
O718        C728   1.254       .  A
O719        V724   1.965       .  S
O719        C728   1.276       .  A
O720        V724   1.958       .  S
O720        C727   1.290       .  A
O721        V724   1.850       .  S
O721        C726   1.248       .  A
O722        V724   1.890       .  S
O722        C725   1.257       .  A
V723        V724   2.070       .  T
C727        C769   1.489       .  S
O729        V737   1.917       .  S
O729        C739   1.273       .  A
O730        V737   1.912       .  S
O730        C740   1.272       .  A
O731        V737   1.876       .  S
O731        C741   1.248       .  A
O732        V737   1.845       .  S
O732        C742   1.254       .  A
O733        V738   1.965       .  S
O733        C742   1.276       .  A
O734        V738   1.958       .  S
O734        C741   1.290       .  A
O735        V738   1.849       .  S
O735        C740   1.248       .  A
O736        V738   1.890       .  S
O736        C739   1.257       .  A
V737        V738   2.070       .  T
C740        C768   1.427       .  S
C742        C756   1.482       .  S
O743        V751   1.917       .  S
O743        C753   1.273       .  A
O744        V751   1.911       .  S
O744        C754   1.272       .  A
O745        V751   1.877       .  S
O745        C755   1.248       .  A
O746        V751   1.845       .  S
O746        C756   1.254       .  A
O747        V752   1.965       .  S
O747        C756   1.276       .  A
O748        V752   1.958       .  S
O748        C755   1.290       .  A
O749        V752   1.850       .  S
O749        C754   1.248       .  A
O750        V752   1.890       .  S
O750        C753   1.257       .  A
V751        V752   2.070       .  T
C753        C781   1.470       .  S
C755        C839   1.489       .  S
O757        V765   1.917       .  S
O757        C767   1.273       .  A
O758        V765   1.911       .  S
O758        C768   1.272       .  A
O759        V765   1.876       .  S
O759        C769   1.248       .  A
O760        V765   1.845       .  S
O760        C770   1.254       .  A
O761        V766   1.965       .  S
O761        C770   1.276       .  A
O762        V766   1.958       .  S
O762        C769   1.290       .  A
O763        V766   1.850       .  S
O763        C768   1.248       .  A
O764        V766   1.890       .  S
O764        C767   1.257       .  A
V765        V766   2.070       .  T
C767        C907   1.470       .  S
C770        C784   1.481       .  S
O771        V779   1.917       .  S
O771        C781   1.273       .  A
O772        V779   1.912       .  S
O772        C782   1.272       .  A
O773        V779   1.876       .  S
O773        C783   1.248       .  A
O774        V779   1.845       .  S
O774        C784   1.254       .  A
O775        V780   1.965       .  S
O775        C784   1.276       .  A
O776        V780   1.958       .  S
O776        C783   1.290       .  A
O777        V780   1.850       .  S
O777        C782   1.248       .  A
O778        V780   1.890       .  S
O778        C781   1.257       .  A
V779        V780   2.070       .  T
C782        C922   1.427       .  S
C783        C811   1.489       .  S
O785        V793   1.917       .  S
O785        C795   1.273       .  A
O786        V793   1.911       .  S
O786        C796   1.272       .  A
O787        V793   1.876       .  S
O787        C797   1.248       .  A
O788        V793   1.845       .  S
O788        C798   1.254       .  A
O789        V794   1.965       .  S
O789        C798   1.276       .  A
O790        V794   1.958       .  S
O790        C797   1.290       .  A
O791        V794   1.850       .  S
O791        C796   1.248       .  A
O792        V794   1.889       .  S
O792        C795   1.257       .  A
V793        V794   2.070       .  T
C795        C991   1.470       .  S
C798        C812   1.481       .  S
O799        V807   1.917       .  S
O799        C809   1.273       .  A
O800        V807   1.911       .  S
O800        C810   1.272       .  A
O801        V807   1.876       .  S
O801        C811   1.248       .  A
O802        V807   1.845       .  S
O802        C812   1.254       .  A
O803        V808   1.965       .  S
O803        C812   1.276       .  A
O804        V808   1.958       .  S
O804        C811   1.290       .  A
O805        V808   1.849       .  S
O805        C810   1.248       .  A
O806        V808   1.889       .  S
O806        C809   1.257       .  A
V807        V808   2.070       .  T
C810       C1006   1.427       .  S
O813        V821   1.917       .  S
O813        C823   1.273       .  A
O814        V821   1.912       .  S
O814        C824   1.272       .  A
O815        V821   1.876       .  S
O815        C825   1.248       .  A
O816        V821   1.845       .  S
O816        C826   1.254       .  A
O817        V822   1.965       .  S
O817        C826   1.276       .  A
O818        V822   1.958       .  S
O818        C825   1.290       .  A
O819        V822   1.849       .  S
O819        C824   1.248       .  A
O820        V822   1.889       .  S
O820        C823   1.257       .  A
V821        V822   2.070       .  T
C824       C1300   1.427       .  S
C826        C840   1.482       .  S
O827        V835   1.917       .  S
O827        C837   1.273       .  A
O828        V835   1.911       .  S
O828        C838   1.272       .  A
O829        V835   1.877       .  S
O829        C839   1.248       .  A
O830        V835   1.845       .  S
O830        C840   1.254       .  A
O831        V836   1.965       .  S
O831        C840   1.276       .  A
O832        V836   1.958       .  S
O832        C839   1.290       .  A
O833        V836   1.850       .  S
O833        C838   1.248       .  A
O834        V836   1.890       .  S
O834        C837   1.257       .  A
V835        V836   2.070       .  T
C837       C1313   1.470       .  S
O841        V849   1.917       .  S
O841        C851   1.273       .  A
O842        V849   1.911       .  S
O842        C852   1.272       .  A
O843        V849   1.876       .  S
O843        C853   1.248       .  A
O844        V849   1.845       .  S
O844        C854   1.254       .  A
O845        V850   1.965       .  S
O845        C854   1.276       .  A
O846        V850   1.958       .  S
O846        C853   1.290       .  A
O847        V850   1.850       .  S
O847        C852   1.248       .  A
O848        V850   1.890       .  S
O848        C851   1.257       .  A
V849        V850   2.070       .  T
C851        C879   1.470       .  S
C852       C1384   1.427       .  S
C853        C993   1.489       .  S
C854        C868   1.481   1_554  S
O855        V863   1.917       .  S
O855        C865   1.273       .  A
O856        V863   1.911       .  S
O856        C866   1.272       .  A
O857        V863   1.876       .  S
O857        C867   1.248       .  A
O858        V863   1.845       .  S
O858        C868   1.254       .  A
O859        V864   1.965       .  S
O859        C868   1.276       .  A
O860        V864   1.958       .  S
O860        C867   1.290       .  A
O861        V864   1.850       .  S
O861        C866   1.248       .  A
O862        V864   1.890       .  S
O862        C865   1.257       .  A
V863        V864   2.070       .  T
C865       C1397   1.470       .  S
C866        C894   1.427       .  S
C867        C909   1.489       .  S
O869        V877   1.917       .  S
O869        C879   1.273       .  A
O870        V877   1.912       .  S
O870        C880   1.272       .  A
O871        V877   1.877       .  S
O871        C881   1.248       .  A
O872        V877   1.845       .  S
O872        C882   1.254       .  A
O873        V878   1.965       .  S
O873        C882   1.276       .  A
O874        V878   1.958       .  S
O874        C881   1.290       .  A
O875        V878   1.850       .  S
O875        C880   1.248       .  A
O876        V878   1.890       .  S
O876        C879   1.257       .  A
V877        V878   2.070       .  T
C881        C965   1.489       .  S
C882        C896   1.482   1_554  S
O883        V891   1.917       .  S
O883        C893   1.273       .  A
O884        V891   1.912       .  S
O884        C894   1.272       .  A
O885        V891   1.877       .  S
O885        C895   1.248       .  A
O886        V891   1.845       .  S
O886        C896   1.254       .  A
O887        V892   1.965       .  S
O887        C896   1.276       .  A
O888        V892   1.958       .  S
O888        C895   1.290       .  A
O889        V892   1.850       .  S
O889        C894   1.248       .  A
O890        V892   1.890       .  S
O890        C893   1.257       .  A
V891        V892   2.070       .  T
C895        C937   1.489       .  S
O897        V905   1.917       .  S
O897        C907   1.273       .  A
O898        V905   1.912       .  S
O898        C908   1.272       .  A
O899        V905   1.876       .  S
O899        C909   1.248       .  A
O900        V905   1.845       .  S
O900        C910   1.254       .  A
O901        V906   1.965       .  S
O901        C910   1.276       .  A
O902        V906   1.958       .  S
O902        C909   1.290       .  A
O903        V906   1.849       .  S
O903        C908   1.248       .  A
O904        V906   1.890       .  S
O904        C907   1.257       .  A
V905        V906   2.070       .  T
C908        C936   1.427       .  S
C910        C924   1.482       .  S
O911        V919   1.917       .  S
O911        C921   1.273       .  A
O912        V919   1.911       .  S
O912        C922   1.272       .  A
O913        V919   1.877       .  S
O913        C923   1.248       .  A
O914        V919   1.845       .  S
O914        C924   1.254       .  A
O915        V920   1.965       .  S
O915        C924   1.276       .  A
O916        V920   1.958       .  S
O916        C923   1.290       .  A
O917        V920   1.850       .  S
O917        C922   1.248       .  A
O918        V920   1.890       .  S
O918        C921   1.257       .  A
V919        V920   2.070       .  T
C921        C949   1.470       .  S
C923       C1007   1.489       .  S
O925        V933   1.917       .  S
O925        C935   1.273       .  A
O926        V933   1.911       .  S
O926        C936   1.272       .  A
O927        V933   1.876       .  S
O927        C937   1.248       .  A
O928        V933   1.845       .  S
O928        C938   1.254       .  A
O929        V934   1.965       .  S
O929        C938   1.276       .  A
O930        V934   1.958       .  S
O930        C937   1.290       .  A
O931        V934   1.850       .  S
O931        C936   1.248       .  A
O932        V934   1.890       .  S
O932        C935   1.257       .  A
V933        V934   2.070       .  T
C938        C952   1.481       .  S
O939        V947   1.917       .  S
O939        C949   1.273       .  A
O940        V947   1.912       .  S
O940        C950   1.272       .  A
O941        V947   1.876       .  S
O941        C951   1.248       .  A
O942        V947   1.845       .  S
O942        C952   1.254       .  A
O943        V948   1.965       .  S
O943        C952   1.276       .  A
O944        V948   1.958       .  S
O944        C951   1.290       .  A
O945        V948   1.850       .  S
O945        C950   1.248       .  A
O946        V948   1.890       .  S
O946        C949   1.257       .  A
V947        V948   2.070       .  T
C951        C979   1.489       .  S
O953        V961   1.917       .  S
O953        C963   1.273       .  A
O954        V961   1.911       .  S
O954        C964   1.272       .  A
O955        V961   1.876       .  S
O955        C965   1.248       .  A
O956        V961   1.845       .  S
O956        C966   1.254       .  A
O957        V962   1.965       .  S
O957        C966   1.276       .  A
O958        V962   1.958       .  S
O958        C965   1.290       .  A
O959        V962   1.850       .  S
O959        C964   1.248       .  A
O960        V962   1.889       .  S
O960        C963   1.257       .  A
V961        V962   2.070       .  T
C966        C980   1.481       .  S
O967        V975   1.917       .  S
O967        C977   1.273       .  A
O968        V975   1.911       .  S
O968        C978   1.272       .  A
O969        V975   1.876       .  S
O969        C979   1.248       .  A
O970        V975   1.845       .  S
O970        C980   1.254       .  A
O971        V976   1.965       .  S
O971        C980   1.276       .  A
O972        V976   1.958       .  S
O972        C979   1.290       .  A
O973        V976   1.849       .  S
O973        C978   1.248       .  A
O974        V976   1.889       .  S
O974        C977   1.257       .  A
V975        V976   2.070       .  T
O981        V989   1.917       .  S
O981        C991   1.273       .  A
O982        V989   1.911       .  S
O982        C992   1.272       .  A
O983        V989   1.876       .  S
O983        C993   1.248       .  A
O984        V989   1.845       .  S
O984        C994   1.254       .  A
O985        V990   1.965       .  S
O985        C994   1.276       .  A
O986        V990   1.958       .  S
O986        C993   1.290       .  A
O987        V990   1.849       .  S
O987        C992   1.248       .  A
O988        V990   1.889       .  S
O988        C991   1.257       .  A
V989        V990   2.070       .  T
C992       C1468   1.427       .  S
C994       C1008   1.482       .  S
O995       V1003   1.917       .  S
O995       C1005   1.273       .  A
O996       V1003   1.911       .  S
O996       C1006   1.272       .  A
O997       V1003   1.877       .  S
O997       C1007   1.248       .  A
O998       V1003   1.845       .  S
O998       C1008   1.254       .  A
O999       V1004   1.965       .  S
O999       C1008   1.276       .  A
O1000      V1004   1.958       .  S
O1000      C1007   1.290       .  A
O1001      V1004   1.850       .  S
O1001      C1006   1.248       .  A
O1002      V1004   1.890       .  S
O1002      C1005   1.257       .  A
V1003      V1004   2.070       .  T
C1005      C1481   1.470       .  S
O1009      V1017   1.917       .  S
O1009      C1019   1.273       .  A
O1010      V1017   1.911       .  S
O1010      C1020   1.272       .  A
O1011      V1017   1.876       .  S
O1011      C1021   1.248       .  A
O1012      V1017   1.845       .  S
O1012      C1022   1.254       .  A
O1013      V1018   1.965       .  S
O1013      C1022   1.276       .  A
O1014      V1018   1.958       .  S
O1014      C1021   1.290       .  A
O1015      V1018   1.850       .  S
O1015      C1020   1.248       .  A
O1016      V1018   1.890       .  S
O1016      C1019   1.257       .  A
V1017      V1018   2.070       .  T
C1019      C1047   1.470       .  S
C1021      C1161   1.489       .  S
C1022      C1036   1.481   1_554  S
O1023      V1031   1.917       .  S
O1023      C1033   1.273       .  A
O1024      V1031   1.911       .  S
O1024      C1034   1.272       .  A
O1025      V1031   1.876       .  S
O1025      C1035   1.248       .  A
O1026      V1031   1.845       .  S
O1026      C1036   1.254       .  A
O1027      V1032   1.965       .  S
O1027      C1036   1.276       .  A
O1028      V1032   1.958       .  S
O1028      C1035   1.290       .  A
O1029      V1032   1.850       .  S
O1029      C1034   1.248       .  A
O1030      V1032   1.890       .  S
O1030      C1033   1.257       .  A
V1031      V1032   2.070       .  T
C1034      C1062   1.427       .  S
C1035      C1077   1.489       .  S
O1037      V1045   1.917       .  S
O1037      C1047   1.273       .  A
O1038      V1045   1.912       .  S
O1038      C1048   1.272       .  A
O1039      V1045   1.877       .  S
O1039      C1049   1.248       .  A
O1040      V1045   1.845       .  S
O1040      C1050   1.254       .  A
O1041      V1046   1.965       .  S
O1041      C1050   1.276       .  A
O1042      V1046   1.958       .  S
O1042      C1049   1.290       .  A
O1043      V1046   1.850       .  S
O1043      C1048   1.248       .  A
O1044      V1046   1.890       .  S
O1044      C1047   1.257       .  A
V1045      V1046   2.070       .  T
C1049      C1133   1.489       .  S
C1050      C1064   1.482   1_554  S
O1051      V1059   1.917       .  S
O1051      C1061   1.273       .  A
O1052      V1059   1.912       .  S
O1052      C1062   1.272       .  A
O1053      V1059   1.877       .  S
O1053      C1063   1.248       .  A
O1054      V1059   1.845       .  S
O1054      C1064   1.254       .  A
O1055      V1060   1.965       .  S
O1055      C1064   1.276       .  A
O1056      V1060   1.958       .  S
O1056      C1063   1.290       .  A
O1057      V1060   1.850       .  S
O1057      C1062   1.248       .  A
O1058      V1060   1.890       .  S
O1058      C1061   1.257       .  A
V1059      V1060   2.070       .  T
C1063      C1105   1.489       .  S
O1065      V1073   1.917       .  S
O1065      C1075   1.273       .  A
O1066      V1073   1.912       .  S
O1066      C1076   1.272       .  A
O1067      V1073   1.876       .  S
O1067      C1077   1.248       .  A
O1068      V1073   1.845       .  S
O1068      C1078   1.254       .  A
O1069      V1074   1.965       .  S
O1069      C1078   1.276       .  A
O1070      V1074   1.958       .  S
O1070      C1077   1.290       .  A
O1071      V1074   1.849       .  S
O1071      C1076   1.248       .  A
O1072      V1074   1.890       .  S
O1072      C1075   1.257       .  A
V1073      V1074   2.070       .  T
C1075      C1439   1.470   1_545  S
C1076      C1104   1.427       .  S
C1078      C1092   1.482       .  S
O1079      V1087   1.917       .  S
O1079      C1089   1.273       .  A
O1080      V1087   1.911       .  S
O1080      C1090   1.272       .  A
O1081      V1087   1.877       .  S
O1081      C1091   1.248       .  A
O1082      V1087   1.845       .  S
O1082      C1092   1.254       .  A
O1083      V1088   1.965       .  S
O1083      C1092   1.276       .  A
O1084      V1088   1.958       .  S
O1084      C1091   1.290       .  A
O1085      V1088   1.850       .  S
O1085      C1090   1.248       .  A
O1086      V1088   1.890       .  S
O1086      C1089   1.257       .  A
V1087      V1088   2.070       .  T
C1089      C1117   1.470       .  S
C1090      C1454   1.427   1_545  S
C1091      C1175   1.489       .  S
O1093      V1101   1.917       .  S
O1093      C1103   1.273       .  A
O1094      V1101   1.911       .  S
O1094      C1104   1.272       .  A
O1095      V1101   1.876       .  S
O1095      C1105   1.248       .  A
O1096      V1101   1.845       .  S
O1096      C1106   1.254       .  A
O1097      V1102   1.965       .  S
O1097      C1106   1.276       .  A
O1098      V1102   1.958       .  S
O1098      C1105   1.290       .  A
O1099      V1102   1.850       .  S
O1099      C1104   1.248       .  A
O1100      V1102   1.890       .  S
O1100      C1103   1.257       .  A
V1101      V1102   2.070       .  T
C1103      C1243   1.470       .  S
C1106      C1120   1.481       .  S
O1107      V1115   1.917       .  S
O1107      C1117   1.274       .  A
O1108      V1115   1.912       .  S
O1108      C1118   1.272       .  A
O1109      V1115   1.876       .  S
O1109      C1119   1.248       .  A
O1110      V1115   1.845       .  S
O1110      C1120   1.254       .  A
O1111      V1116   1.965       .  S
O1111      C1120   1.276       .  A
O1112      V1116   1.958       .  S
O1112      C1119   1.290       .  A
O1113      V1116   1.850       .  S
O1113      C1118   1.248       .  A
O1114      V1116   1.890       .  S
O1114      C1117   1.257       .  A
V1115      V1116   2.070       .  T
C1118      C1258   1.427       .  S
C1119      C1147   1.489       .  S
O1121      V1129   1.917       .  S
O1121      C1131   1.273       .  A
O1122      V1129   1.911       .  S
O1122      C1132   1.272       .  A
O1123      V1129   1.876       .  S
O1123      C1133   1.248       .  A
O1124      V1129   1.845       .  S
O1124      C1134   1.254       .  A
O1125      V1130   1.965       .  S
O1125      C1134   1.276       .  A
O1126      V1130   1.958       .  S
O1126      C1133   1.290       .  A
O1127      V1130   1.850       .  S
O1127      C1132   1.248       .  A
O1128      V1130   1.889       .  S
O1128      C1131   1.257       .  A
V1129      V1130   2.070       .  T
C1131      C1327   1.470       .  S
C1134      C1148   1.481       .  S
O1135      V1143   1.917       .  S
O1135      C1145   1.273       .  A
O1136      V1143   1.911       .  S
O1136      C1146   1.272       .  A
O1137      V1143   1.876       .  S
O1137      C1147   1.248       .  A
O1138      V1143   1.845       .  S
O1138      C1148   1.254       .  A
O1139      V1144   1.965       .  S
O1139      C1148   1.276       .  A
O1140      V1144   1.958       .  S
O1140      C1147   1.290       .  A
O1141      V1144   1.849       .  S
O1141      C1146   1.248       .  A
O1142      V1144   1.889       .  S
O1142      C1145   1.257       .  A
V1143      V1144   2.070       .  T
C1146      C1342   1.427       .  S
O1149      V1157   1.917       .  S
O1149      C1159   1.273       .  A
O1150      V1157   1.911       .  S
O1150      C1160   1.272       .  A
O1151      V1157   1.876       .  S
O1151      C1161   1.248       .  A
O1152      V1157   1.845       .  S
O1152      C1162   1.254       .  A
O1153      V1158   1.965       .  S
O1153      C1162   1.276       .  A
O1154      V1158   1.958       .  S
O1154      C1161   1.290       .  A
O1155      V1158   1.849       .  S
O1155      C1160   1.248       .  A
O1156      V1158   1.889       .  S
O1156      C1159   1.257       .  A
V1157      V1158   2.070       .  T
C1159      C1467   1.470   1_545  S
C1162      C1176   1.482       .  S
O1163      V1171   1.917       .  S
O1163      C1173   1.273       .  A
O1164      V1171   1.911       .  S
O1164      C1174   1.272       .  A
O1165      V1171   1.877       .  S
O1165      C1175   1.248       .  A
O1166      V1171   1.845       .  S
O1166      C1176   1.254       .  A
O1167      V1172   1.965       .  S
O1167      C1176   1.276       .  A
O1168      V1172   1.958       .  S
O1168      C1175   1.290       .  A
O1169      V1172   1.850       .  S
O1169      C1174   1.248       .  A
O1170      V1172   1.890       .  S
O1170      C1173   1.257       .  A
V1171      V1172   2.070       .  T
C1174      C1482   1.427   1_545  S
O1177      V1185   1.917       .  S
O1177      C1187   1.273       .  A
O1178      V1185   1.911       .  S
O1178      C1188   1.272       .  A
O1179      V1185   1.876       .  S
O1179      C1189   1.248       .  A
O1180      V1185   1.845       .  S
O1180      C1190   1.254       .  A
O1181      V1186   1.965       .  S
O1181      C1190   1.276       .  A
O1182      V1186   1.958       .  S
O1182      C1189   1.290       .  A
O1183      V1186   1.850       .  S
O1183      C1188   1.248       .  A
O1184      V1186   1.890       .  S
O1184      C1187   1.257       .  A
V1185      V1186   2.070       .  T
C1187      C1215   1.470       .  S
C1189      C1329   1.489       .  S
C1190      C1204   1.481   1_554  S
O1191      V1199   1.917       .  S
O1191      C1201   1.273       .  A
O1192      V1199   1.911       .  S
O1192      C1202   1.272       .  A
O1193      V1199   1.876       .  S
O1193      C1203   1.248       .  A
O1194      V1199   1.845       .  S
O1194      C1204   1.254       .  A
O1195      V1200   1.965       .  S
O1195      C1204   1.276       .  A
O1196      V1200   1.958       .  S
O1196      C1203   1.290       .  A
O1197      V1200   1.850       .  S
O1197      C1202   1.248       .  A
O1198      V1200   1.890       .  S
O1198      C1201   1.257       .  A
V1199      V1200   2.070       .  T
C1202      C1230   1.427       .  S
C1203      C1245   1.489       .  S
O1205      V1213   1.917       .  S
O1205      C1215   1.273       .  A
O1206      V1213   1.912       .  S
O1206      C1216   1.272       .  A
O1207      V1213   1.877       .  S
O1207      C1217   1.248       .  A
O1208      V1213   1.845       .  S
O1208      C1218   1.254       .  A
O1209      V1214   1.965       .  S
O1209      C1218   1.276       .  A
O1210      V1214   1.958       .  S
O1210      C1217   1.290       .  A
O1211      V1214   1.850       .  S
O1211      C1216   1.248       .  A
O1212      V1214   1.890       .  S
O1212      C1215   1.257       .  A
V1213      V1214   2.070       .  T
C1217      C1301   1.489       .  S
C1218      C1232   1.482   1_554  S
O1219      V1227   1.917       .  S
O1219      C1229   1.273       .  A
O1220      V1227   1.912       .  S
O1220      C1230   1.272       .  A
O1221      V1227   1.877       .  S
O1221      C1231   1.248       .  A
O1222      V1227   1.845       .  S
O1222      C1232   1.254       .  A
O1223      V1228   1.965       .  S
O1223      C1232   1.276       .  A
O1224      V1228   1.958       .  S
O1224      C1231   1.290       .  A
O1225      V1228   1.850       .  S
O1225      C1230   1.248       .  A
O1226      V1228   1.890       .  S
O1226      C1229   1.257       .  A
V1227      V1228   2.070       .  T
C1231      C1273   1.489       .  S
O1233      V1241   1.917       .  S
O1233      C1243   1.273       .  A
O1234      V1241   1.912       .  S
O1234      C1244   1.272       .  A
O1235      V1241   1.876       .  S
O1235      C1245   1.248       .  A
O1236      V1241   1.845       .  S
O1236      C1246   1.254       .  A
O1237      V1242   1.965       .  S
O1237      C1246   1.276       .  A
O1238      V1242   1.958       .  S
O1238      C1245   1.290       .  A
O1239      V1242   1.849       .  S
O1239      C1244   1.248       .  A
O1240      V1242   1.890       .  S
O1240      C1243   1.257       .  A
V1241      V1242   2.070       .  T
C1244      C1272   1.427       .  S
C1246      C1260   1.482       .  S
O1247      V1255   1.917       .  S
O1247      C1257   1.273       .  A
O1248      V1255   1.911       .  S
O1248      C1258   1.272       .  A
O1249      V1255   1.877       .  S
O1249      C1259   1.248       .  A
O1250      V1255   1.845       .  S
O1250      C1260   1.254       .  A
O1251      V1256   1.965       .  S
O1251      C1260   1.276       .  A
O1252      V1256   1.958       .  S
O1252      C1259   1.290       .  A
O1253      V1256   1.850       .  S
O1253      C1258   1.248       .  A
O1254      V1256   1.890       .  S
O1254      C1257   1.257       .  A
V1255      V1256   2.070       .  T
C1257      C1285   1.470       .  S
C1259      C1343   1.489       .  S
O1261      V1269   1.917       .  S
O1261      C1271   1.273       .  A
O1262      V1269   1.911       .  S
O1262      C1272   1.272       .  A
O1263      V1269   1.876       .  S
O1263      C1273   1.248       .  A
O1264      V1269   1.845       .  S
O1264      C1274   1.254       .  A
O1265      V1270   1.965       .  S
O1265      C1274   1.276       .  A
O1266      V1270   1.958       .  S
O1266      C1273   1.290       .  A
O1267      V1270   1.850       .  S
O1267      C1272   1.248       .  A
O1268      V1270   1.890       .  S
O1268      C1271   1.257       .  A
V1269      V1270   2.070       .  T
C1271      C1411   1.470       .  S
C1274      C1288   1.481       .  S
O1275      V1283   1.917       .  S
O1275      C1285   1.273       .  A
O1276      V1283   1.912       .  S
O1276      C1286   1.272       .  A
O1277      V1283   1.876       .  S
O1277      C1287   1.248       .  A
O1278      V1283   1.845       .  S
O1278      C1288   1.254       .  A
O1279      V1284   1.965       .  S
O1279      C1288   1.276       .  A
O1280      V1284   1.958       .  S
O1280      C1287   1.290       .  A
O1281      V1284   1.850       .  S
O1281      C1286   1.248       .  A
O1282      V1284   1.890       .  S
O1282      C1285   1.257       .  A
V1283      V1284   2.070       .  T
C1286      C1426   1.427       .  S
C1287      C1315   1.489       .  S
O1289      V1297   1.917       .  S
O1289      C1299   1.273       .  A
O1290      V1297   1.911       .  S
O1290      C1300   1.272       .  A
O1291      V1297   1.876       .  S
O1291      C1301   1.248       .  A
O1292      V1297   1.845       .  S
O1292      C1302   1.254       .  A
O1293      V1298   1.965       .  S
O1293      C1302   1.276       .  A
O1294      V1298   1.958       .  S
O1294      C1301   1.290       .  A
O1295      V1298   1.850       .  S
O1295      C1300   1.248       .  A
O1296      V1298   1.889       .  S
O1296      C1299   1.257       .  A
V1297      V1298   2.070       .  T
C1299      C1495   1.470       .  S
C1302      C1316   1.481       .  S
O1303      V1311   1.917       .  S
O1303      C1313   1.273       .  A
O1304      V1311   1.911       .  S
O1304      C1314   1.272       .  A
O1305      V1311   1.876       .  S
O1305      C1315   1.248       .  A
O1306      V1311   1.845       .  S
O1306      C1316   1.254       .  A
O1307      V1312   1.965       .  S
O1307      C1316   1.276       .  A
O1308      V1312   1.958       .  S
O1308      C1315   1.290       .  A
O1309      V1312   1.849       .  S
O1309      C1314   1.248       .  A
O1310      V1312   1.889       .  S
O1310      C1313   1.257       .  A
V1311      V1312   2.070       .  T
C1314      C1510   1.427       .  S
O1317      V1325   1.917       .  S
O1317      C1327   1.273       .  A
O1318      V1325   1.912       .  S
O1318      C1328   1.272       .  A
O1319      V1325   1.876       .  S
O1319      C1329   1.248       .  A
O1320      V1325   1.845       .  S
O1320      C1330   1.254       .  A
O1321      V1326   1.965       .  S
O1321      C1330   1.276       .  A
O1322      V1326   1.958       .  S
O1322      C1329   1.290       .  A
O1323      V1326   1.849       .  S
O1323      C1328   1.248       .  A
O1324      V1326   1.889       .  S
O1324      C1327   1.257       .  A
V1325      V1326   2.070       .  T
C1330      C1344   1.482       .  S
O1331      V1339   1.917       .  S
O1331      C1341   1.273       .  A
O1332      V1339   1.911       .  S
O1332      C1342   1.272       .  A
O1333      V1339   1.877       .  S
O1333      C1343   1.248       .  A
O1334      V1339   1.845       .  S
O1334      C1344   1.254       .  A
O1335      V1340   1.965       .  S
O1335      C1344   1.276       .  A
O1336      V1340   1.958       .  S
O1336      C1343   1.290       .  A
O1337      V1340   1.850       .  S
O1337      C1342   1.248       .  A
O1338      V1340   1.890       .  S
O1338      C1341   1.257       .  A
V1339      V1340   2.070       .  T
O1345      V1353   1.917       .  S
O1345      C1355   1.273       .  A
O1346      V1353   1.911       .  S
O1346      C1356   1.272       .  A
O1347      V1353   1.876       .  S
O1347      C1357   1.248       .  A
O1348      V1353   1.845       .  S
O1348      C1358   1.254       .  A
O1349      V1354   1.965       .  S
O1349      C1358   1.276       .  A
O1350      V1354   1.958       .  S
O1350      C1357   1.290       .  A
O1351      V1354   1.850       .  S
O1351      C1356   1.248       .  A
O1352      V1354   1.890       .  S
O1352      C1355   1.257       .  A
V1353      V1354   2.070       .  T
C1355      C1383   1.470       .  S
C1357      C1497   1.489       .  S
C1358      C1372   1.481   1_554  S
O1359      V1367   1.917       .  S
O1359      C1369   1.273       .  A
O1360      V1367   1.911       .  S
O1360      C1370   1.272       .  A
O1361      V1367   1.876       .  S
O1361      C1371   1.248       .  A
O1362      V1367   1.845       .  S
O1362      C1372   1.254       .  A
O1363      V1368   1.965       .  S
O1363      C1372   1.276       .  A
O1364      V1368   1.958       .  S
O1364      C1371   1.290       .  A
O1365      V1368   1.850       .  S
O1365      C1370   1.248       .  A
O1366      V1368   1.890       .  S
O1366      C1369   1.257       .  A
V1367      V1368   2.070       .  T
C1370      C1398   1.427       .  S
C1371      C1413   1.489       .  S
O1373      V1381   1.917       .  S
O1373      C1383   1.273       .  A
O1374      V1381   1.912       .  S
O1374      C1384   1.272       .  A
O1375      V1381   1.877       .  S
O1375      C1385   1.248       .  A
O1376      V1381   1.845       .  S
O1376      C1386   1.254       .  A
O1377      V1382   1.965       .  S
O1377      C1386   1.276       .  A
O1378      V1382   1.958       .  S
O1378      C1385   1.290       .  A
O1379      V1382   1.850       .  S
O1379      C1384   1.248       .  A
O1380      V1382   1.890       .  S
O1380      C1383   1.257       .  A
V1381      V1382   2.070       .  T
C1385      C1469   1.489       .  S
C1386      C1400   1.482   1_554  S
O1387      V1395   1.917       .  S
O1387      C1397   1.273       .  A
O1388      V1395   1.912       .  S
O1388      C1398   1.272       .  A
O1389      V1395   1.877       .  S
O1389      C1399   1.248       .  A
O1390      V1395   1.845       .  S
O1390      C1400   1.254       .  A
O1391      V1396   1.965       .  S
O1391      C1400   1.276       .  A
O1392      V1396   1.958       .  S
O1392      C1399   1.290       .  A
O1393      V1396   1.850       .  S
O1393      C1398   1.248       .  A
O1394      V1396   1.890       .  S
O1394      C1397   1.257       .  A
V1395      V1396   2.070       .  T
C1399      C1441   1.489       .  S
O1401      V1409   1.917       .  S
O1401      C1411   1.273       .  A
O1402      V1409   1.912       .  S
O1402      C1412   1.272       .  A
O1403      V1409   1.876       .  S
O1403      C1413   1.248       .  A
O1404      V1409   1.845       .  S
O1404      C1414   1.254       .  A
O1405      V1410   1.965       .  S
O1405      C1414   1.276       .  A
O1406      V1410   1.958       .  S
O1406      C1413   1.290       .  A
O1407      V1410   1.849       .  S
O1407      C1412   1.248       .  A
O1408      V1410   1.890       .  S
O1408      C1411   1.257       .  A
V1409      V1410   2.070       .  T
C1412      C1440   1.427       .  S
C1414      C1428   1.482       .  S
O1415      V1423   1.917       .  S
O1415      C1425   1.273       .  A
O1416      V1423   1.911       .  S
O1416      C1426   1.272       .  A
O1417      V1423   1.877       .  S
O1417      C1427   1.248       .  A
O1418      V1423   1.845       .  S
O1418      C1428   1.254       .  A
O1419      V1424   1.965       .  S
O1419      C1428   1.276       .  A
O1420      V1424   1.958       .  S
O1420      C1427   1.290       .  A
O1421      V1424   1.850       .  S
O1421      C1426   1.248       .  A
O1422      V1424   1.890       .  S
O1422      C1425   1.257       .  A
V1423      V1424   2.070       .  T
C1425      C1453   1.470       .  S
C1427      C1511   1.489       .  S
O1429      V1437   1.917       .  S
O1429      C1439   1.273       .  A
O1430      V1437   1.911       .  S
O1430      C1440   1.272       .  A
O1431      V1437   1.876       .  S
O1431      C1441   1.248       .  A
O1432      V1437   1.845       .  S
O1432      C1442   1.254       .  A
O1433      V1438   1.965       .  S
O1433      C1442   1.276       .  A
O1434      V1438   1.958       .  S
O1434      C1441   1.290       .  A
O1435      V1438   1.850       .  S
O1435      C1440   1.248       .  A
O1436      V1438   1.890       .  S
O1436      C1439   1.257       .  A
V1437      V1438   2.070       .  T
C1442      C1456   1.481       .  S
O1443      V1451   1.917       .  S
O1443      C1453   1.273       .  A
O1444      V1451   1.912       .  S
O1444      C1454   1.272       .  A
O1445      V1451   1.876       .  S
O1445      C1455   1.248       .  A
O1446      V1451   1.845       .  S
O1446      C1456   1.254       .  A
O1447      V1452   1.965       .  S
O1447      C1456   1.276       .  A
O1448      V1452   1.958       .  S
O1448      C1455   1.290       .  A
O1449      V1452   1.850       .  S
O1449      C1454   1.248       .  A
O1450      V1452   1.890       .  S
O1450      C1453   1.257       .  A
V1451      V1452   2.070       .  T
C1455      C1483   1.489       .  S
O1457      V1465   1.917       .  S
O1457      C1467   1.273       .  A
O1458      V1465   1.911       .  S
O1458      C1468   1.272       .  A
O1459      V1465   1.876       .  S
O1459      C1469   1.248       .  A
O1460      V1465   1.845       .  S
O1460      C1470   1.254       .  A
O1461      V1466   1.965       .  S
O1461      C1470   1.276       .  A
O1462      V1466   1.958       .  S
O1462      C1469   1.290       .  A
O1463      V1466   1.850       .  S
O1463      C1468   1.248       .  A
O1464      V1466   1.889       .  S
O1464      C1467   1.257       .  A
V1465      V1466   2.070       .  T
C1470      C1484   1.481       .  S
O1471      V1479   1.917       .  S
O1471      C1481   1.273       .  A
O1472      V1479   1.911       .  S
O1472      C1482   1.272       .  A
O1473      V1479   1.876       .  S
O1473      C1483   1.248       .  A
O1474      V1479   1.845       .  S
O1474      C1484   1.254       .  A
O1475      V1480   1.965       .  S
O1475      C1484   1.276       .  A
O1476      V1480   1.958       .  S
O1476      C1483   1.290       .  A
O1477      V1480   1.849       .  S
O1477      C1482   1.248       .  A
O1478      V1480   1.889       .  S
O1478      C1481   1.257       .  A
V1479      V1480   2.070       .  T
O1485      V1493   1.917       .  S
O1485      C1495   1.273       .  A
O1486      V1493   1.911       .  S
O1486      C1496   1.272       .  A
O1487      V1493   1.876       .  S
O1487      C1497   1.248       .  A
O1488      V1493   1.845       .  S
O1488      C1498   1.254       .  A
O1489      V1494   1.965       .  S
O1489      C1498   1.276       .  A
O1490      V1494   1.958       .  S
O1490      C1497   1.290       .  A
O1491      V1494   1.849       .  S
O1491      C1496   1.248       .  A
O1492      V1494   1.889       .  S
O1492      C1495   1.257       .  A
V1493      V1494   2.070       .  T
C1498      C1512   1.482       .  S
O1499      V1507   1.917       .  S
O1499      C1509   1.273       .  A
O1500      V1507   1.911       .  S
O1500      C1510   1.272       .  A
O1501      V1507   1.877       .  S
O1501      C1511   1.249       .  A
O1502      V1507   1.845       .  S
O1502      C1512   1.254       .  A
O1503      V1508   1.965       .  S
O1503      C1512   1.276       .  A
O1504      V1508   1.958       .  S
O1504      C1511   1.290       .  A
O1505      V1508   1.850       .  S
O1505      C1510   1.248       .  A
O1506      V1508   1.890       .  S
O1506      C1509   1.257       .  A
V1507      V1508   2.070       .  T
