geometry optimzed in LAMMPS
_audit_creation_date              2020-12-01 
_audit_creation_method            'lammps2cif' 
_symmetry_space_group_name_H-M    'P1' 
_symmetry_Int_Tables_number       1 
_symmetry_cell_setting            triclinic 
loop_ 
_symmetry_equiv_pos_as_xyz 
  x,y,z 
_cell_length_a                    57.01496965 
_cell_length_b                    57.01818841440454 
_cell_length_c                    34.66152865234698 
_cell_angle_alpha                 89.97083886827642 
_cell_angle_beta                  90.07140167672688 
_cell_angle_gamma                 120.06247587811156 
loop_ 
_atom_site_label 
_atom_site_type_symbol 
_atom_site_fract_x 
_atom_site_fract_y 
_atom_site_fract_z 
_atom_site_charge 
O1          O  0.86858701  0.70369144  0.67810911    -0.74500
O2          O  0.79330541  0.66220723  0.65165034    -0.74600
O3          O  0.82185334  0.67995111  0.71871064    -0.74600
O4          O  0.83994695  0.68577874  0.61083404    -0.74700
O5          O  0.84198619  0.64785858  0.61514972    -0.74600
O6          O  0.82362529  0.64185275  0.72216381    -0.74600
O7          O  0.79532040  0.62424137  0.65534726    -0.74600
O8          O  0.87045765  0.66567025  0.68242490    -0.74600
Ni9        Ni  0.83088908  0.68429696  0.66466641     1.25400
Ni10       Ni  0.83296135  0.64361042  0.66886835     1.25400
C11         C  0.88177821  0.69147767  0.68565034     0.87600
C12         C  0.78195131  0.63638163  0.64866306     0.87600
C13         C  0.82002085  0.66000007  0.73831823     0.87600
C14         C  0.84320616  0.66727646  0.59496618     0.87800
O15         O  0.12817721  0.83328209  0.81905691    -0.74500
O16         O  0.20426853  0.87232375  0.84324563    -0.74600
O17         O  0.17420636  0.85941432  0.77711128    -0.74600
O18         O  0.15805272  0.84642035  0.88473761    -0.74700
O19         O  0.16020266  0.80853226  0.88089484    -0.74600
O20         O  0.17458650  0.82064912  0.77227522    -0.74600
O21         O  0.20541761  0.83400212  0.83741063    -0.74600
O22         O  0.12944323  0.79488393  0.81618825    -0.74600
Ni23       Ni  0.16617099  0.85425289  0.83113450     1.25400
Ni24       Ni  0.16750103  0.81319228  0.82647351     1.25400
C25         C  0.11625185  0.80756068  0.81385997     0.87600
C26         C  0.21727345  0.85937496  0.84505191     0.87600
C27         C  0.17637205  0.84188982  0.75664308     0.87600
C28         C  0.15670754  0.82552298  0.90072769     0.87800
O29         O  0.54007297  0.04101364  0.00208884    -0.74500
O30         O  0.46389832  0.00432554  0.98146910    -0.74600
O31         O  0.49515855  0.02043393  0.04612787    -0.74600
O32         O  0.50888344  0.02469687  0.93713115    -0.74700
O33         O  0.50882010  0.98559085  0.93982497    -0.74600
O34         O  0.49314358  0.98039342  0.04778684    -0.74600
O35         O  0.46266451  0.96464303  0.98206348    -0.74600
O36         O  0.53870612  0.00132158  0.00561531    -0.74600
Ni37       Ni  0.50202280  0.02401503  0.99154923     1.25400
Ni38       Ni  0.50072063  0.98154688  0.99382906     1.25400
C39         C  0.55179574  0.02721978  0.00858482     0.87600
C40         C  0.45072539  0.97849694  0.97785506     0.87600
C41         C  0.49262943  0.99997693  0.06510823     0.87600
C42         C  0.51116582  0.00582556  0.92056663     0.87800
O43         O  0.12610650  0.32722657  0.33002375    -0.74500
O44         O  0.20211482  0.36217564  0.35359446    -0.74600
O45         O  0.17202163  0.34775441  0.28782816    -0.74600
O46         O  0.15630279  0.34194756  0.39604259    -0.74700
O47         O  0.15423800  0.30189540  0.39754290    -0.74600
O48         O  0.16939915  0.30744100  0.28890297    -0.74600
O49         O  0.19965678  0.32192516  0.35429252    -0.74600
O50         O  0.12396293  0.28713711  0.33201007    -0.74600
Ni51       Ni  0.16420130  0.34620780  0.34185010     1.25400
Ni52       Ni  0.16171873  0.30318763  0.34326044     1.25400
C53         C  0.11259858  0.30135362  0.32649620     0.87600
C54         C  0.21337445  0.34771541  0.35806170     0.87600
C55         C  0.17299575  0.32845807  0.27034299     0.87600
C56         C  0.15315071  0.32120810  0.41486960     0.87800
O57         O  0.86659177  0.20415400  0.18482119    -0.74500
O58         O  0.79154078  0.16039942  0.15850011    -0.74600
O59         O  0.82052716  0.17445528  0.22517915    -0.74600
O60         O  0.83766613  0.19013772  0.11793564    -0.74700
O61         O  0.84291145  0.15410126  0.11252561    -0.74600
O62         O  0.82574722  0.13839729  0.21978477    -0.74600
O63         O  0.79670868  0.12431203  0.15305827    -0.74600
O64         O  0.87179195  0.16808204  0.17943871    -0.74600
Ni65       Ni  0.82889299  0.18356108  0.17175221     1.25400
Ni66       Ni  0.83445508  0.14493266  0.16598668     1.25400
C67         C  0.88146964  0.19324016  0.18727023     0.87600
C68         C  0.78176739  0.13517895  0.15104980     0.87600
C69         C  0.82084956  0.15412476  0.24038668     0.87600
C70         C  0.84282401  0.17457380  0.09737141     0.87800
O71         O  0.53676631  0.53556477  0.50892475    -0.74500
O72         O  0.46125324  0.49600309  0.48517142    -0.74600
O73         O  0.49106118  0.50898760  0.55107712    -0.74600
O74         O  0.50721579  0.52237681  0.44271671    -0.74700
O75         O  0.50930913  0.48447402  0.43884983    -0.74600
O76         O  0.49290664  0.47097325  0.54616635    -0.74600
O77         O  0.46296166  0.45792802  0.48017361    -0.74600
O78         O  0.53883284  0.49763254  0.50500477    -0.74600
Ni79       Ni  0.49896432  0.51706568  0.49707449     1.25400
Ni80       Ni  0.50101484  0.47638556  0.49231815     1.25400
C81         C  0.55016432  0.52312516  0.51182197     0.87600
C82         C  0.44960743  0.47052101  0.47849665     0.87600
C83         C  0.49013491  0.48810926  0.56664759     0.87600
C84         C  0.51093439  0.50550248  0.42288978     0.87800
O85         O  0.16038828  0.28888853  0.83048388    -0.74500
O86         O  0.12712870  0.33082126  0.85773715    -0.74600
O87         O  0.13868607  0.31403035  0.79032939    -0.74600
O88         O  0.14872378  0.30530401  0.89769435    -0.74700
O89         O  0.18895760  0.34317656  0.89640972    -0.74600
O90         O  0.17906315  0.35171445  0.78877474    -0.74600
O91         O  0.16754558  0.36844278  0.85586207    -0.74600
O92         O  0.20068721  0.32668516  0.82934514    -0.74600
Ni93       Ni  0.14226635  0.30843782  0.84412886     1.25400
Ni94       Ni  0.18546942  0.34883490  0.84254757     1.25400
C95         C  0.18607617  0.30098456  0.82503782     0.87600
C96         C  0.14195401  0.35658001  0.86170860     0.87600
C97         C  0.15746828  0.33397305  0.77157592     0.87600
C98         C  0.17039354  0.32285565  0.91488014     0.87800
O99         O  0.29807621  0.16856185  0.68463287    -0.74500
O100        O  0.33414529  0.12991260  0.65541744    -0.74600
O101        O  0.31855097  0.14168883  0.72337975    -0.74600
O102        O  0.31386266  0.15677499  0.61655751    -0.74700
O103        O  0.35387242  0.19472531  0.62098064    -0.74600
O104        O  0.35814062  0.18015258  0.72786463    -0.74600
O105        O  0.37408913  0.16793490  0.66001597    -0.74600
O106        O  0.33785861  0.20684393  0.68837768    -0.74600
Ni107      Ni  0.31473796  0.14790236  0.66985097     1.25400
Ni108      Ni  0.35740656  0.18876203  0.67451726     1.25400
C109        C  0.31198852  0.19400041  0.69183429     0.87600
C110        C  0.36000016  0.14259577  0.65205488     0.87600
C111        C  0.33888609  0.15876296  0.74344372     0.87600
C112        C  0.33348286  0.17785241  0.60085903     0.87800
O113        O  0.96676813  0.50540419  0.01576268    -0.74500
O114        O  0.00140300  0.46415102  0.99456248    -0.74600
O115        O  0.98959685  0.48296644  0.05933918    -0.74600
O116        O  0.97875879  0.48653491  0.95078943    -0.74700
O117        O  0.01837400  0.52502901  0.94692463    -0.74600
O118        O  0.02939142  0.52124505  0.05547375    -0.74600
O119        O  0.04123734  0.50231567  0.99022156    -0.74600
O120        O  0.00656511  0.54366291  0.01203463    -0.74600
Ni121      Ni  0.98271987  0.48343529  0.00524361     1.25400
Ni122      Ni  0.02533428  0.52440921  0.00101493     1.25400
C123        C  0.98097015  0.53127930  0.01824833     0.87600
C124        C  0.02694696  0.47640303  0.98814056     0.87600
C125        C  0.01099832  0.50183132  0.07548317     0.87600
C126        C  0.99700877  0.50608982  0.93081715     0.87800
O127        O  0.66611939  0.79715914  0.31728479    -0.74500
O128        O  0.63270978  0.83874966  0.34438863    -0.74600
O129        O  0.64723153  0.82483807  0.27680785    -0.74600
O130        O  0.65184108  0.81120370  0.38462178    -0.74700
O131        O  0.69261571  0.84830402  0.38752746    -0.74600
O132        O  0.68774553  0.86220077  0.28061848    -0.74600
O133        O  0.67334440  0.87597764  0.34817939    -0.74600
O134        O  0.70674052  0.83448959  0.32013506    -0.74600
Ni135      Ni  0.64800310  0.81667026  0.33064718     1.25400
Ni136      Ni  0.69151336  0.85656198  0.33422391     1.25400
C137        C  0.69193053  0.80902450  0.31367787     0.87600
C138        C  0.64750395  0.86411120  0.35158020     0.87600
C139        C  0.66712165  0.84550578  0.26070481     0.87600
C140        C  0.67297225  0.82769052  0.40394171     0.87800
O141        O  0.79873926  0.67137333  0.17884593    -0.74500
O142        O  0.83418076  0.63113933  0.15547640    -0.74600
O143        O  0.82354284  0.65044477  0.22133057    -0.74600
O144        O  0.80947543  0.65238962  0.11310789    -0.74700
O145        O  0.84865707  0.69113808  0.10758774    -0.74600
O146        O  0.86280775  0.68901000  0.21504957    -0.74600
O147        O  0.87342518  0.66973796  0.14926835    -0.74600
O148        O  0.83800956  0.71001316  0.17309684    -0.74600
Ni149      Ni  0.81510046  0.64992663  0.16740777     1.25400
Ni150      Ni  0.85713261  0.69128606  0.16103302     1.25400
C151        C  0.81256396  0.69729722  0.18046249     0.87600
C152        C  0.85955647  0.64379566  0.14768293     0.87600
C153        C  0.84514060  0.66994140  0.23626682     0.87600
C154        C  0.82686840  0.67215963  0.09247301     0.87800
O155        O  0.46428022  0.00574992  0.50417983    -0.74500
O156        O  0.49784614  0.96353036  0.48108373    -0.74600
O157        O  0.48445179  0.98046776  0.54670135    -0.74600
O158        O  0.47730551  0.98897336  0.43858700    -0.74700
O159        O  0.51822496  0.02606347  0.43800240    -0.74600
O160        O  0.52484638  0.01819239  0.54688416    -0.74600
O161        O  0.53838700  0.00103191  0.48181108    -0.74600
O162        O  0.50473838  0.04335471  0.50327143    -0.74600
Ni163      Ni  0.47957612  0.98331953  0.49259939     1.25400
Ni164      Ni  0.52300469  0.02349034  0.49245342     1.25400
C165        C  0.47901004  0.03148664  0.50820353     0.87600
C166        C  0.52367262  0.97534520  0.47731325     0.87600
C167        C  0.50536567  0.99837462  0.56490808     0.87600
C168        C  0.49662167  0.00876620  0.42038471     0.87800
O169        O  0.30603686  0.15885571  0.11431310    -0.74500
O170        O  0.30685580  0.17137147  0.22277072    -0.74600
O171        O  0.32176737  0.20312728  0.15849646    -0.74600
O172        O  0.29136210  0.12702686  0.17882876    -0.74700
O173        O  0.33295690  0.13283123  0.18273526    -0.74600
O174        O  0.36321896  0.20857203  0.16215000    -0.74600
O175        O  0.34842485  0.17716668  0.22702364    -0.74600
O176        O  0.34740036  0.16398321  0.11800576    -0.74600
Ni177      Ni  0.30503521  0.16487267  0.16845200     1.25400
Ni178      Ni  0.34948621  0.17086379  0.17263365     1.25400
C179        C  0.32671340  0.15990241  0.09808846     0.87600
C180        C  0.32747338  0.17578095  0.24302022     0.87600
C181        C  0.34757857  0.21831999  0.15611342     0.87600
C182        C  0.30720205  0.11749159  0.18495979     0.87800
O183        O  0.47092555  0.49242519  0.94509087    -0.74500
O184        O  0.48492919  0.50977891  0.05242081    -0.74600
O185        O  0.49864215  0.53876434  0.98577260    -0.74600
O186        O  0.45728959  0.46314597  0.01200506    -0.74700
O187        O  0.49465098  0.46017686  0.00676458    -0.74600
O188        O  0.53607668  0.53573638  0.98294164    -0.74600
O189        O  0.52192972  0.50603467  0.04887296    -0.74600
O190        O  0.50875694  0.49023003  0.94061018    -0.74600
Ni191      Ni  0.47658818  0.50108439  0.99895611     1.25400
Ni192      Ni  0.51663288  0.49786959  0.99463563     1.25400
C193        C  0.48800218  0.48941445  0.92478994     0.87600
C194        C  0.50557528  0.51060024  0.06851620     0.87600
C195        C  0.52419821  0.54966122  0.97974008     0.87600
C196        C  0.46933371  0.44928620  0.01442662     0.87800
O197        O  0.21210589  0.87061781  0.31355760    -0.74500
O198        O  0.17692855  0.79432330  0.33539230    -0.74600
O199        O  0.18874252  0.82492896  0.27054526    -0.74600
O200        O  0.20035394  0.83979712  0.37861992    -0.74700
O201        O  0.16067712  0.83835381  0.38319948    -0.74600
O202        O  0.14906192  0.82352203  0.27455087    -0.74600
O203        O  0.13729374  0.79300011  0.33954324    -0.74600
O204        O  0.17237130  0.86903692  0.31820425    -0.74600
Ni205      Ni  0.19595196  0.83250968  0.32437004     1.25400
Ni206      Ni  0.15345914  0.83096218  0.32901862     1.25400
C207        C  0.19793607  0.88235675  0.31177990     0.87600
C208        C  0.15130503  0.78113231  0.34155628     0.87600
C209        C  0.16711546  0.82188649  0.25457799     0.87600
C210        C  0.18218649  0.84088133  0.39899624     0.87800
O211        O  0.97808777  0.49401016  0.44562560    -0.74500
O212        O  0.97922260  0.50970382  0.55361178    -0.74600
O213        O  0.99835565  0.53953986  0.48783791    -0.74600
O214        O  0.95858650  0.46360783  0.51139771    -0.74700
O215        O  0.99741002  0.46362151  0.51885812    -0.74600
O216        O  0.03716452  0.53925599  0.49317383    -0.74600
O217        O  0.01821791  0.50984621  0.55976976    -0.74600
O218        O  0.01635985  0.49279812  0.45256036    -0.74600
Ni219      Ni  0.97715388  0.50167735  0.49941383     1.25400
Ni220      Ni  0.01865930  0.50139273  0.50636482     1.25400
C221        C  0.99742542  0.49152289  0.43116605     0.87600
C222        C  0.99874289  0.51188651  0.57462915     0.87600
C223        C  0.02424453  0.55170806  0.48523861     0.87600
C224        C  0.97144717  0.45119716  0.51997163     0.87800
O225        O  0.80771573  0.15993153  0.62009198    -0.74500
O226        O  0.82603966  0.17528192  0.72711526    -0.74600
O227        O  0.83691533  0.20552046  0.66154430    -0.74600
O228        O  0.79678658  0.12968815  0.68554578    -0.74700
O229        O  0.83354859  0.12633520  0.67475705    -0.74600
O230        O  0.87412052  0.20260197  0.65336872    -0.74600
O231        O  0.86265325  0.17144020  0.71814002    -0.74600
O232        O  0.84512251  0.15756435  0.61063511    -0.74600
Ni233      Ni  0.81555531  0.16770310  0.67395405     1.25400
Ni234      Ni  0.85519520  0.16439572  0.66396059     1.25400
C235        C  0.82377210  0.15689135  0.59747828     0.87600
C236        C  0.84700551  0.17528304  0.74054402     0.87600
C237        C  0.86204754  0.21647710  0.65262176     0.87600
C238        C  0.80852703  0.11553397  0.68419912     0.87800
O239        O  0.66227336  0.79575215  0.84551315    -0.74500
O240        O  0.69918456  0.87163979  0.82183835    -0.74600
O241        O  0.68129800  0.84164641  0.88755839    -0.74600
O242        O  0.67999682  0.82558923  0.77955583    -0.74700
O243        O  0.63984490  0.82304227  0.77403281    -0.74600
O244        O  0.64204324  0.84087689  0.88107815    -0.74600
O245        O  0.65942259  0.86972134  0.81387439    -0.74600
O246        O  0.62264283  0.79438014  0.84036391    -0.74600
Ni247      Ni  0.68213080  0.83375312  0.83382206     1.25400
Ni248      Ni  0.63961541  0.83199737  0.82717632     1.25400
C249        C  0.63632938  0.78260485  0.84733490     0.87600
C250        C  0.68537453  0.88299392  0.81306846     0.87600
C251        C  0.66162017  0.84341819  0.90232627     0.87600
C252        C  0.65960444  0.82162152  0.75896168     0.87800
C253        C  0.79304883  0.08649686  0.69447142    -0.03300
C254        C  0.79906244  0.06774181  0.67750645    -0.05900
C255        C  0.78427237  0.04027931  0.68764973    -0.21000
C256        C  0.76395515  0.03135700  0.71587418     0.24700
C257        C  0.75799709  0.05012922  0.73285034    -0.18600
C258        C  0.77221681  0.07737570  0.72194628    -0.08500
C259        C  0.74879227  0.00237797  0.72698112    -0.18800
C260        C  0.74296116  0.99467411  0.76404400    -0.23600
C261        C  0.72813331  0.96588717  0.77585986     0.26800
C262        C  0.73728553  0.95762474  0.80783004    -0.20400
C263        C  0.72345980  0.93057310  0.81983012    -0.10000
C264        C  0.69962948  0.91161769  0.80099129    -0.10600
C265        C  0.69002327  0.92001613  0.76960773    -0.03500
C266        C  0.70438980  0.94688808  0.75675635    -0.18600
H267        H  0.81494992  0.07427360  0.65610057     0.10500
H268        H  0.78903861  0.02607595  0.67403817     0.10600
H269        H  0.74209153  0.04365406  0.75420999     0.10200
H270        H  0.76724142  0.09143762  0.73551821     0.11300
H271        H  0.74364934  0.98717086  0.70467125     0.11400
H272        H  0.75071809  0.00993740  0.78664974     0.13300
H273        H  0.75541965  0.97205646  0.82311228     0.09800
H274        H  0.73116413  0.92450523  0.84413477     0.11900
H275        H  0.67174339  0.90564937  0.75454719     0.08500
H276        H  0.69672694  0.95295062  0.73240095     0.11300
C277        C  0.95628792  0.42242367  0.53255405    -0.03300
C278        C  0.92785560  0.40732710  0.53058895    -0.05900
C279        C  0.91369388  0.38068001  0.54451094    -0.21000
C280        C  0.92750077  0.36847352  0.56102108     0.24700
C281        C  0.95606052  0.38354907  0.56234341    -0.18600
C282        C  0.97017713  0.41011237  0.54832303    -0.08500
C283        C  0.91126519  0.34014505  0.57615941    -0.18800
C284        C  0.92174294  0.32723805  0.59632501    -0.23600
C285        C  0.90559452  0.29892242  0.61096659     0.26800
C286        C  0.91916289  0.28461132  0.61890240    -0.20400
C287        C  0.90512819  0.25807337  0.63294918    -0.10000
C288        C  0.87712332  0.24521879  0.63992904    -0.10600
C289        C  0.86353429  0.25967941  0.63273858    -0.03500
C290        C  0.87758239  0.28623801  0.61840099    -0.18600
H291        H  0.91650228  0.41616282  0.51855946     0.10500
H292        H  0.89177174  0.36965112  0.54275704     0.10600
H293        H  0.96790745  0.37523069  0.57395654     0.10200
H294        H  0.99208098  0.42115582  0.55035078     0.11300
H295        H  0.88968751  0.32951792  0.57011017     0.11400
H296        H  0.94329762  0.33727130  0.60191175     0.13300
H297        H  0.94074916  0.29391778  0.61378051     0.09800
H298        H  0.91624628  0.24757172  0.63812526     0.11900
H299        H  0.84195024  0.25037298  0.63779319     0.08500
H300        H  0.86647986  0.29678330  0.61376552     0.11300
C301        C  0.03910514  0.58007676  0.47111842    -0.03300
C302        C  0.02557705  0.59481491  0.46668518    -0.05900
C303        C  0.03874138  0.62066598  0.45027989    -0.21000
C304        C  0.06561633  0.63234355  0.43740131     0.24700
C305        C  0.07944222  0.61788421  0.44254567    -0.18600
C306        C  0.06629931  0.59203017  0.45928867    -0.08500
C307        C  0.07840958  0.65986336  0.41991327    -0.18800
C308        C  0.10017323  0.67027667  0.39639666    -0.23600
C309        C  0.11245628  0.69806355  0.37981894     0.26800
C310        C  0.14008014  0.71191069  0.37013367    -0.20400
C311        C  0.15265203  0.73867329  0.35674109    -0.10000
C312        C  0.13774232  0.75205789  0.35235884    -0.10600
C313        C  0.10980605  0.73771632  0.36023367    -0.03500
C314        C  0.09727789  0.71102728  0.37363045    -0.18600
H315        H  0.00464561  0.58624716  0.47549778     0.10500
H316        H  0.02768704  0.63143109  0.44705353     0.10600
H317        H  0.10040404  0.62644660  0.43408810     0.10200
H318        H  0.07728381  0.58118917  0.46226315     0.11300
H319        H  0.06906198  0.67190013  0.42665949     0.11400
H320        H  0.10994030  0.65860324  0.38986943     0.13300
H321        H  0.15215233  0.70226420  0.37401669     0.09800
H322        H  0.17416447  0.74905296  0.35063809     0.11900
H323        H  0.09761403  0.74725041  0.35663627     0.08500
H324        H  0.07570583  0.70070169  0.37903887     0.11300
C325        C  0.62189353  0.75362419  0.85842994    -0.03300
C326        C  0.59347701  0.73837566  0.85660710    -0.05900
C327        C  0.57960839  0.71155021  0.86937716    -0.21000
C328        C  0.59371771  0.69937904  0.88467455     0.24700
C329        C  0.62226014  0.71430125  0.88524075    -0.18600
C330        C  0.63617130  0.74115713  0.87225886    -0.08500
C331        C  0.57774193  0.67118769  0.89952865    -0.18800
C332        C  0.58734934  0.66010497  0.92485249    -0.23600
C333        C  0.57066607  0.63213325  0.94003863     0.26800
C334        C  0.58360634  0.61777515  0.95108212    -0.20400
C335        C  0.56856028  0.59116584  0.96457242    -0.10000
C336        C  0.54020779  0.57845291  0.96789139    -0.10600
C337        C  0.52732567  0.59318271  0.95820259    -0.03500
C338        C  0.54237739  0.61975152  0.94441749    -0.18600
H339        H  0.58186540  0.74726762  0.84574658     0.10500
H340        H  0.55766806  0.70044046  0.86810046     0.10600
H341        H  0.63400360  0.70543517  0.89547162     0.10200
H342        H  0.65809772  0.75228853  0.87367181     0.11300
H343        H  0.55686717  0.65937650  0.88985587     0.11400
H344        H  0.60823962  0.67147668  0.93446610     0.13300
H345        H  0.60539728  0.62698757  0.94848541     0.09800
H346        H  0.57915102  0.58046340  0.97203540     0.11900
H347        H  0.50554862  0.58405063  0.96070816     0.08500
H348        H  0.53180788  0.63055166  0.93755863     0.11300
C349        C  0.21094260  0.91146635  0.30124125    -0.03300
C350        C  0.19607530  0.92501971  0.30287210    -0.05900
C351        C  0.20760600  0.95194466  0.29081745    -0.21000
C352        C  0.23414286  0.96595956  0.27635476     0.24700
C353        C  0.24937053  0.95268489  0.27566097    -0.18600
C354        C  0.23785987  0.92572376  0.28798874    -0.08500
C355        C  0.24494573  0.99432494  0.26272284    -0.18800
C356        C  0.26565106  0.00701613  0.23763675    -0.23600
C357        C  0.27544500  0.03504215  0.22323517     0.26800
C358        C  0.30227333  0.05038716  0.21021068    -0.20400
C359        C  0.31243383  0.07695471  0.19709949    -0.10000
C360        C  0.29582786  0.08867355  0.19610296    -0.10600
C361        C  0.26868820  0.07301555  0.20786907    -0.03500
C362        C  0.25858475  0.04650599  0.22129113    -0.18600
H363        H  0.17535504  0.91473688  0.31313151     0.10500
H364        H  0.19550050  0.96171305  0.29209123     0.10600
H365        H  0.27017491  0.96297423  0.26592517     0.10200
H366        H  0.24992445  0.91592728  0.28658916     0.11300
H367        H  0.23471372  0.00479982  0.27312959     0.11400
H368        H  0.27618564  0.99682274  0.22736090     0.13300
H369        H  0.31559296  0.04196045  0.21086980     0.09800
H370        H  0.33340438  0.08840518  0.18804797     0.11900
H371        H  0.25534363  0.08140500  0.20734693     0.08500
H372        H  0.23751146  0.03505709  0.22968652     0.11300
C373        C  0.35955090  0.24721057  0.14470138    -0.03300
C374        C  0.34306401  0.25864574  0.13781261    -0.05900
C375        C  0.35427561  0.28515646  0.12368219    -0.21000
C376        C  0.38210545  0.30068772  0.11562822     0.24700
C377        C  0.39875621  0.28964426  0.12409715    -0.18600
C378        C  0.38759763  0.26323971  0.13834423    -0.08500
C379        C  0.39316533  0.32832105  0.09879104    -0.18800
C380        C  0.41552137  0.33993085  0.07637236    -0.23600
C381        C  0.42788294  0.36764651  0.05932836     0.26800
C382        C  0.45426745  0.37916033  0.04446699    -0.20400
C383        C  0.46734321  0.40529397  0.02900262    -0.10000
C384        C  0.45431251  0.42066416  0.02769794    -0.10600
C385        C  0.42756618  0.40893015  0.04145641    -0.03500
C386        C  0.41445492  0.38270403  0.05711693    -0.18600
H387        H  0.32140604  0.24694048  0.14261914     0.10500
H388        H  0.34104603  0.29329921  0.11803598     0.10600
H389        H  0.42045545  0.30131033  0.11991058     0.10200
H390        H  0.40095941  0.25522195  0.14370667     0.11300
H391        H  0.38208359  0.33881021  0.10442652     0.11400
H392        H  0.42579873  0.32866920  0.07030185     0.13300
H393        H  0.46507464  0.36804408  0.04542507     0.09800
H394        H  0.48790516  0.41360861  0.01861266     0.11900
H395        H  0.41691877  0.42019678  0.04078627     0.08500
H396        H  0.39390022  0.37447531  0.06726732     0.11300
C397        C  0.65882325  0.81582603  0.71708896    -0.03300
C398        C  0.63504506  0.80801497  0.69577692    -0.05900
C399        C  0.63453447  0.80429868  0.65590007    -0.21000
C400        C  0.65780764  0.80855592  0.63612321     0.24700
C401        C  0.68139311  0.81535747  0.65759189    -0.18600
C402        C  0.68186433  0.81896121  0.69766893    -0.08500
C403        C  0.65644497  0.80608070  0.59324827    -0.18800
C404        C  0.67832961  0.81778812  0.56999521    -0.23600
C405        C  0.67667740  0.81839584  0.52706625     0.26800
C406        C  0.69916561  0.83834440  0.50682376    -0.20400
C407        C  0.69814250  0.84093241  0.46683900    -0.10000
C408        C  0.67460773  0.82346281  0.44593138    -0.10600
C409        C  0.65242505  0.80276775  0.46588686    -0.03500
C410        C  0.65344199  0.80018081  0.50597758    -0.18600
H411        H  0.61682665  0.80511809  0.70983503     0.10500
H412        H  0.61599821  0.79874082  0.64028286     0.10600
H413        H  0.69952106  0.81794744  0.64374077     0.10200
H414        H  0.70042497  0.82471641  0.71331431     0.11300
H415        H  0.63637598  0.79623278  0.58049842     0.11400
H416        H  0.69831199  0.82949024  0.58274514     0.13300
H417        H  0.71742993  0.85247161  0.52213532     0.09800
H418        H  0.71570289  0.85698001  0.45240711     0.11900
H419        H  0.63408368  0.78880485  0.45061880     0.08500
H420        H  0.63596993  0.78389556  0.52009944     0.11300
C421        C  0.66091700  0.84727790  0.94467471    -0.03300
C422        C  0.63924206  0.84867610  0.96163760    -0.05900
C423        C  0.63717007  0.84952833  0.00182840    -0.21000
C424        C  0.65681318  0.84930470  0.02605057     0.24700
C425        C  0.67882660  0.84849190  0.00908121    -0.18600
C426        C  0.68086124  0.84755863  0.96891234    -0.08500
C427        C  0.65283806  0.84813757  0.06869212    -0.18800
C428        C  0.67345453  0.85715461  0.09415003    -0.23600
C429        C  0.66991153  0.85505845  0.13684742     0.26800
C430        C  0.69178694  0.87289792  0.16009905    -0.20400
C431        C  0.69036219  0.87041440  0.20026233    -0.10000
C432        C  0.66709707  0.84970382  0.21833780    -0.10600
C433        C  0.64491418  0.83206418  0.19515646    -0.03500
C434        C  0.64626619  0.83471493  0.15482495    -0.18600
H435        H  0.62347274  0.84842759  0.94390112     0.10500
H436        H  0.61994947  0.85002074  0.01407694     0.10600
H437        H  0.69400546  0.84753192  0.02667322     0.10200
H438        H  0.69768589  0.84623417  0.95690440     0.11300
H439        H  0.63232224  0.84027456  0.07924984     0.11400
H440        H  0.69411466  0.86734074  0.08341407     0.13300
H441        H  0.71028443  0.88863996  0.14707728     0.09800
H442        H  0.70789836  0.88430147  0.21708355     0.11900
H443        H  0.62676685  0.81576768  0.20809840     0.08500
H444        H  0.62920326  0.82017250  0.13787497     0.11300
C445        C  0.70475114  0.79328166  0.30101550    -0.03300
C446        C  0.68925922  0.76501115  0.29656946    -0.05900
C447        C  0.70120437  0.75038319  0.28290604    -0.21000
C448        C  0.72873895  0.76369971  0.27287900     0.24700
C449        C  0.74440739  0.79190944  0.27820361    -0.18600
C450        C  0.73251008  0.80651526  0.29206725    -0.08500
C451        C  0.74047190  0.74743882  0.25778327    -0.18800
C452        C  0.76228221  0.75770859  0.23443553    -0.23600
C453        C  0.77427581  0.74164082  0.21942709     0.26800
C454        C  0.80149817  0.75538294  0.20774935    -0.20400
C455        C  0.81384971  0.74106722  0.19441056    -0.10000
C456        C  0.79910958  0.71264381  0.19210194    -0.10600
C457        C  0.77160810  0.69892485  0.20259766    -0.03500
C458        C  0.75927920  0.71323569  0.21600835    -0.18600
H459        H  0.66784933  0.75418192  0.30339906     0.10500
H460        H  0.68878016  0.72862930  0.27951762     0.10600
H461        H  0.76590569  0.80279185  0.27218009     0.10200
H462        H  0.74505008  0.82824842  0.29542104     0.11300
H463        H  0.73034008  0.72621069  0.26581691     0.11400
H464        H  0.77226484  0.77894205  0.22639322     0.13300
H465        H  0.81341413  0.77726908  0.20965140     0.09800
H466        H  0.83504580  0.75226620  0.18640500     0.11900
H467        H  0.75961564  0.67704794  0.20084207     0.08500
H468        H  0.73799537  0.70191230  0.22327534     0.11300
C469        C  0.53669525  0.95932923  0.46667379    -0.03300
C470        C  0.52094646  0.93166911  0.45750611    -0.05900
C471        C  0.53326902  0.91706246  0.44515607    -0.21000
C472        C  0.56154924  0.92975872  0.44140550     0.24700
C473        C  0.57738138  0.95722245  0.45184620    -0.18600
C474        C  0.56506734  0.97182814  0.46417314    -0.08500
C475        C  0.57364778  0.91359075  0.42692422    -0.18800
C476        C  0.59816767  0.92463886  0.40984968    -0.23600
C477        C  0.61010502  0.90855148  0.39445814     0.26800
C478        C  0.63828835  0.92145669  0.38927540    -0.20400
C479        C  0.65043548  0.90718693  0.37488232    -0.10000
C480        C  0.63459923  0.87966571  0.36499410    -0.10600
C481        C  0.60632424  0.86686737  0.36940500    -0.03500
C482        C  0.59418248  0.88112909  0.38383412    -0.18600
H483        H  0.49905132  0.92138290  0.45923175     0.10500
H484        H  0.52060223  0.89586360  0.43775296     0.10600
H485        H  0.59926552  0.96754647  0.45087187     0.10200
H486        H  0.57782499  0.99301939  0.47148832     0.11300
H487        H  0.56142441  0.89175696  0.42970628     0.11400
H488        H  0.61034302  0.94647769  0.40704274     0.13300
H489        H  0.65101797  0.94261756  0.39683557     0.09800
H490        H  0.67226850  0.91767883  0.37185091     0.11900
H491        H  0.59350756  0.84573368  0.36182809     0.08500
H492        H  0.57233980  0.87061326  0.38601220     0.11300
C493        C  0.99395262  0.50613364  0.88841466    -0.03300
C494        C  0.97852146  0.48156106  0.86860715    -0.05900
C495        C  0.97789992  0.48098375  0.82829966    -0.21000
C496        C  0.99202763  0.50499488  0.80693970     0.24700
C497        C  0.00678622  0.52975185  0.82668539    -0.18600
C498        C  0.00792817  0.53026716  0.86708425    -0.08500
C499        C  0.99280479  0.50322486  0.76430907    -0.18800
C500        C  0.99451648  0.52254790  0.74022333    -0.23600
C501        C  0.99600417  0.52021330  0.69774711     0.26800
C502        C  0.98265897  0.52938148  0.67322769    -0.20400
C503        C  0.98349532  0.52679188  0.63309768    -0.10000
C504        C  0.99842471  0.51575614  0.61682382    -0.10600
C505        C  0.01240657  0.50733649  0.64142233    -0.03500
C506        C  0.01107547  0.50936860  0.68142378    -0.18600
H507        H  0.96779690  0.46261488  0.88424523     0.10500
H508        H  0.96659409  0.46165755  0.81370468     0.10600
H509        H  0.01834523  0.54854371  0.81097445     0.10200
H510        H  0.02007316  0.54947412  0.88163079     0.11300
H511        H  0.99093108  0.48476633  0.75225476     0.11400
H512        H  0.99355510  0.53977296  0.75168532     0.13300
H513        H  0.97111996  0.53802465  0.68519036     0.09800
H514        H  0.97257851  0.53349995  0.61480919     0.11900
H515        H  0.02398452  0.49865050  0.62975036     0.08500
H516        H  0.02209240  0.50270512  0.69956997     0.11300
C517        C  0.99868898  0.48843837  0.38902754    -0.03300
C518        C  0.01098610  0.47444681  0.37367305    -0.05900
C519        C  0.01355598  0.47298924  0.33370663    -0.21000
C520        C  0.00476302  0.48628040  0.30848123     0.24700
C521        C  0.99238026  0.50022174  0.32385446    -0.18600
C522        C  0.98916745  0.50107729  0.36373693    -0.08500
C523        C  0.00766148  0.48441703  0.26622538    -0.18800
C524        C  0.01328165  0.50510581  0.24212602    -0.23600
C525        C  0.01464268  0.50314495  0.19953561     0.26800
C526        C  0.03089142  0.52673693  0.17814262    -0.20400
C527        C  0.03074296  0.52603393  0.13778310    -0.10000
C528        C  0.01381463  0.50179758  0.11797100    -0.10600
C529        C  0.99788932  0.47807335  0.13938280    -0.03500
C530        C  0.99839349  0.47868522  0.17974230    -0.18600
H531        H  0.01852230  0.46457098  0.39259299     0.10500
H532        H  0.02289597  0.46189781  0.32246869     0.10600
H533        H  0.98483501  0.51014187  0.30505767     0.10200
H534        H  0.97983774  0.51220519  0.37487172     0.11300
H535        H  0.00612350  0.46592362  0.25497637     0.11400
H536        H  0.01754427  0.52446722  0.25408718     0.13300
H537        H  0.04341388  0.54586208  0.19271709     0.09800
H538        H  0.04303729  0.54470628  0.12210103     0.11900
H539        H  0.98455442  0.45913019  0.12491833     0.08500
H540        H  0.98514402  0.46024776  0.19528823     0.11300
C541        C  0.96775139  0.54691778  0.02966932    -0.03300
C542        C  0.98277911  0.57532179  0.03232984    -0.05900
C543        C  0.97057215  0.58987382  0.04531649    -0.21000
C544        C  0.94320761  0.57639537  0.05633604     0.24700
C545        C  0.92798657  0.54800578  0.05278991    -0.18600
C546        C  0.94016355  0.53346462  0.03970087    -0.08500
C547        C  0.93125190  0.59271176  0.07058615    -0.18800
C548        C  0.90922845  0.58266964  0.09352980    -0.23600
C549        C  0.89729079  0.59896268  0.10797757     0.26800
C550        C  0.87006580  0.58540314  0.11966664    -0.20400
C551        C  0.85789860  0.59987859  0.13312440    -0.10000
C552        C  0.87280955  0.62830599  0.13555743    -0.10600
C553        C  0.90024833  0.64185743  0.12473437    -0.03500
C554        C  0.91239946  0.62738350  0.11120598    -0.18600
H555        H  0.00406385  0.58632269  0.02477340     0.10500
H556        H  0.98268465  0.61173973  0.04737186     0.10600
H557        H  0.90662081  0.53687948  0.05961323     0.10200
H558        H  0.92796654  0.51160945  0.03778543     0.11300
H559        H  0.94143024  0.61387993  0.06222883     0.11400
H560        H  0.89909388  0.56150170  0.10190196     0.13300
H561        H  0.85803365  0.56351950  0.11785605     0.09800
H562        H  0.83672208  0.58878598  0.14125144     0.11900
H563        H  0.91235282  0.66372661  0.12645627     0.08500
H564        H  0.93367012  0.63859637  0.10384710     0.11300
C565        C  0.33969653  0.15431949  0.78541497    -0.03300
C566        C  0.32416209  0.12836373  0.80164154    -0.05900
C567        C  0.32369431  0.12472223  0.84168979    -0.21000
C568        C  0.33807173  0.14704568  0.86621500     0.24700
C569        C  0.35409227  0.17288536  0.84994149    -0.18600
C570        C  0.35504203  0.17644322  0.80996663    -0.08500
C571        C  0.33582747  0.14325301  0.90869801    -0.18800
C572        C  0.33338034  0.16085934  0.93180357    -0.23600
C573        C  0.33023269  0.15791737  0.97428506     0.26800
C574        C  0.31496534  0.16765109  0.99282641    -0.20400
C575        C  0.31304533  0.16720381  0.03298343    -0.10000
C576        C  0.32703010  0.15773332  0.05560413    -0.10600
C577        C  0.34229390  0.14785034  0.03716781    -0.03500
C578        C  0.34363222  0.14763173  0.99674801    -0.18600
H579        H  0.31224009  0.11092980  0.78339303     0.10500
H580        H  0.31137962  0.10460218  0.85361956     0.10600
H581        H  0.36583154  0.19037866  0.86816992     0.10200
H582        H  0.36717428  0.19668330  0.79834615     0.11300
H583        H  0.33419232  0.12490163  0.92074331     0.11400
H584        H  0.33214270  0.17754959  0.91875557     0.13300
H585        H  0.30465671  0.17586537  0.97614189     0.09800
H586        H  0.30139472  0.17523465  0.04641908     0.11900
H587        H  0.35333564  0.14053291  0.05400161     0.08500
H588        H  0.35596121  0.14044403  0.98321141     0.11300
C589        C  0.33333162  0.18213293  0.55866065    -0.03300
C590        C  0.35578084  0.20391916  0.54070074    -0.05900
C591        C  0.35715582  0.20629456  0.50051987    -0.21000
C592        C  0.33607371  0.18715657  0.47728725     0.24700
C593        C  0.31324949  0.16569053  0.49525808    -0.18600
C594        C  0.31189654  0.16328065  0.53549530    -0.08500
C595        C  0.33952361  0.18933072  0.43463328    -0.18800
C596        C  0.31878467  0.17754409  0.40945226    -0.23600
C597        C  0.32244270  0.17895786  0.36686681     0.26800
C598        C  0.30077629  0.17513064  0.34334901    -0.20400
C599        C  0.30277348  0.17494328  0.30319717    -0.10000
C600        C  0.32644487  0.17826695  0.28551620    -0.10600
C601        C  0.34825299  0.18224634  0.30901722    -0.03500
C602        C  0.34628805  0.18255275  0.34927231    -0.18600
H603        H  0.37271802  0.21875097  0.55761835     0.10500
H604        H  0.37501136  0.22294293  0.48749047     0.10600
H605        H  0.29685635  0.15008983  0.47849573     0.10200
H606        H  0.29441921  0.14613173  0.54837510     0.11300
H607        H  0.35998049  0.20178113  0.42373319     0.11400
H608        H  0.29812907  0.16721042  0.42015321     0.13300
H609        H  0.28211778  0.17209429  0.35611574     0.09800
H610        H  0.28549718  0.17164198  0.28603596     0.11900
H611        H  0.36664382  0.18454752  0.29634759     0.08500
H612        H  0.36314439  0.18474686  0.36639045     0.11300
C613        C  0.46622825  0.04751132  0.52005436    -0.03300
C614        C  0.48172184  0.07585086  0.52364628    -0.05900
C615        C  0.47000324  0.09065557  0.53762681    -0.21000
C616        C  0.44265991  0.07749950  0.54877593     0.24700
C617        C  0.42691408  0.04922379  0.54389804    -0.18600
C618        C  0.43859762  0.03444089  0.52981474    -0.08500
C619        C  0.43131248  0.09395170  0.56495499    -0.18800
C620        C  0.40944431  0.08360683  0.58827089    -0.23600
C621        C  0.39776567  0.09959627  0.60496522     0.26800
C622        C  0.37080953  0.08558793  0.61782027    -0.20400
C623        C  0.35874471  0.09950317  0.63365408    -0.10000
C624        C  0.37347716  0.12783881  0.63753309    -0.10600
C625        C  0.40068836  0.14190280  0.62553295    -0.03500
C626        C  0.41273363  0.12796502  0.60938676    -0.18600
H627        H  0.50302965  0.08658649  0.51620666     0.10500
H628        H  0.48252051  0.11243203  0.54056125     0.10600
H629        H  0.40552847  0.03835152  0.55062706     0.10200
H630        H  0.42601046  0.01266442  0.52711875     0.11300
H631        H  0.44183862  0.11536990  0.55797241     0.11400
H632        H  0.39916176  0.06221838  0.59541470     0.13300
H633        H  0.35886969  0.06374497  0.61513083     0.09800
H634        H  0.33776557  0.08802043  0.64265804     0.11900
H635        H  0.41259102  0.16374310  0.62812199     0.08500
H636        H  0.43378374  0.13950140  0.60094229     0.11300
C637        C  0.12964569  0.37292711  0.87391715    -0.03300
C638        C  0.14567378  0.40126337  0.87700599    -0.05900
C639        C  0.13444709  0.41671142  0.88989842    -0.21000
C640        C  0.10705913  0.40423743  0.90044678     0.24700
C641        C  0.09082709  0.37592008  0.89666052    -0.18600
C642        C  0.10204270  0.36044970  0.88359632    -0.08500
C643        C  0.09614013  0.42155105  0.91426597    -0.18800
C644        C  0.07438964  0.41247833  0.93753825    -0.23600
C645        C  0.06321066  0.42960425  0.95130085     0.26800
C646        C  0.03618802  0.41674627  0.96378603    -0.20400
C647        C  0.02456120  0.43191004  0.97633253    -0.10000
C648        C  0.03981841  0.46036766  0.97707436    -0.10600
C649        C  0.06709997  0.47327719  0.96556682    -0.03500
C650        C  0.07872102  0.45809352  0.95289190    -0.18600
H651        H  0.16699435  0.41156121  0.86966431     0.10500
H652        H  0.14732159  0.43849239  0.89215250     0.10600
H653        H  0.06941006  0.36561882  0.90319060     0.10200
H654        H  0.08910746  0.33869357  0.88128576     0.11300
H655        H  0.10686461  0.44259596  0.90528862     0.11400
H656        H  0.06383358  0.39142411  0.94654229     0.13300
H657        H  0.02385946  0.39485082  0.96324453     0.09800
H658        H  0.00350379  0.42129749  0.98509890     0.11900
H659        H  0.07943937  0.49516104  0.96597261     0.08500
H660        H  0.09987209  0.46882666  0.94482959     0.11300
C661        C  0.19911418  0.28533672  0.81278953    -0.03300
C662        C  0.18363947  0.25729486  0.80611897    -0.05900
C663        C  0.19598275  0.24294275  0.79274976    -0.21000
C664        C  0.22395107  0.25631412  0.78539091     0.24700
C665        C  0.23954561  0.28424516  0.79307953    -0.18600
C666        C  0.22723853  0.29856919  0.80649866    -0.08500
C667        C  0.23618970  0.24039076  0.77057051    -0.18800
C668        C  0.25920540  0.25139356  0.74959277    -0.23600
C669        C  0.27189606  0.23593010  0.73437487     0.26800
C670        C  0.29891326  0.25044691  0.72171930    -0.20400
C671        C  0.31189545  0.23692819  0.70753761    -0.10000
C672        C  0.29801864  0.20851376  0.70524758    -0.10600
C673        C  0.27080857  0.19396629  0.71709895    -0.03500
C674        C  0.25786304  0.20746268  0.73147244    -0.18600
H675        H  0.16194598  0.24646934  0.81081207     0.10500
H676        H  0.18356175  0.22138111  0.78751570     0.10600
H677        H  0.26129220  0.29512504  0.78925664     0.10200
H678        H  0.23980969  0.32010385  0.81174291     0.11300
H679        H  0.22536549  0.21886858  0.77670855     0.11400
H680        H  0.26956815  0.27291511  0.74324777     0.13300
H681        H  0.31016137  0.27237210  0.72323441     0.09800
H682        H  0.33283653  0.24874515  0.69847493     0.11900
H683        H  0.25952886  0.17204890  0.71565030     0.08500
H684        H  0.23683809  0.19538351  0.73972488     0.11300
C685        C  0.48731336  0.48429491  0.60902455    -0.03300
C686        C  0.49488898  0.46701827  0.62714263    -0.05900
C687        C  0.49508851  0.46529696  0.66731602    -0.21000
C688        C  0.48727643  0.48039045  0.69042970     0.24700
C689        C  0.47907131  0.49726381  0.67235669    -0.18600
C690        C  0.47917836  0.49923468  0.63203562    -0.08500
C691        C  0.48966499  0.47920395  0.73305179    -0.18800
C692        C  0.47571375  0.48539631  0.75842246    -0.23600
C693        C  0.47883016  0.48475712  0.80100821     0.26800
C694        C  0.45764879  0.48175857  0.82490136    -0.20400
C695        C  0.46027385  0.48239693  0.86508001    -0.10000
C696        C  0.48426111  0.48618757  0.88235354    -0.10600
C697        C  0.50541631  0.48897074  0.85846493    -0.03500
C698        C  0.50281487  0.48840141  0.81826275    -0.18600
H699        H  0.50157680  0.45546148  0.61030309     0.10500
H700        H  0.50169625  0.45232330  0.68042280     0.10600
H701        H  0.47353709  0.50973768  0.68913452     0.10200
H702        H  0.47341509  0.51285093  0.61890312     0.11300
H703        H  0.50280847  0.47197320  0.74376042     0.11400
H704        H  0.46065807  0.49016396  0.74785428     0.13300
H705        H  0.43904763  0.47911976  0.81241701     0.09800
H706        H  0.44363911  0.48034449  0.88261093     0.11900
H707        H  0.52434417  0.49241784  0.87080933     0.08500
H708        H  0.51996860  0.49168827  0.80094720     0.11300
C709        C  0.51681006  0.50980578  0.38092238    -0.03300
C710        C  0.52094200  0.49117213  0.35970542    -0.05900
C711        C  0.52514103  0.49406747  0.31991325    -0.21000
C712        C  0.52508911  0.51548005  0.30008736     0.24700
C713        C  0.52189327  0.53475802  0.32136960    -0.18600
C714        C  0.51775194  0.53189714  0.36140047    -0.08500
C715        C  0.52784927  0.51636301  0.25730451    -0.18800
C716        C  0.51824110  0.52848148  0.23385239    -0.23600
C717        C  0.51682740  0.52532198  0.19109484     0.26800
C718        C  0.49717608  0.52843011  0.17101386    -0.20400
C719        C  0.49378221  0.52396039  0.13124903    -0.10000
C720        C  0.51022020  0.51656609  0.11040326    -0.10600
C721        C  0.53059924  0.51439771  0.13018914    -0.03500
C722        C  0.53392063  0.51876165  0.17010304    -0.18600
H723        H  0.52056262  0.47401689  0.37374731     0.10500
H724        H  0.52776718  0.47905388  0.30438697     0.10600
H725        H  0.52257548  0.55203695  0.30734884     0.10200
H726        H  0.51496854  0.54678866  0.37695711     0.11300
H727        H  0.53551306  0.50409903  0.24471993     0.11400
H728        H  0.50842273  0.53877618  0.24640192     0.13300
H729        H  0.48388911  0.53368397  0.18632340     0.09800
H730        H  0.47803677  0.52604183  0.11691118     0.11900
H731        H  0.54377273  0.50898292  0.11492791     0.08500
H732        H  0.54989431  0.51701557  0.18424411     0.11300
C733        C  0.85257857  0.17884590  0.78264688    -0.03300
C734        C  0.87415613  0.17685363  0.79882326    -0.05900
C735        C  0.87787233  0.17795993  0.83889347    -0.21000
C736        C  0.86031354  0.18134510  0.86367232     0.24700
C737        C  0.83895523  0.18371767  0.84739451    -0.18600
C738        C  0.83522808  0.18258068  0.80743223    -0.08500
C739        C  0.86351452  0.18026889  0.90622451    -0.18800
C740        C  0.85374830  0.19106364  0.93179872    -0.23600
C741        C  0.85377637  0.18781404  0.97447423     0.26800
C742        C  0.84787412  0.20432069  0.99780061    -0.20400
C743        C  0.84510174  0.20052131  0.03772781    -0.10000
C744        C  0.84798762  0.17993110  0.05542029    -0.10600
C745        C  0.85448006  0.16372255  0.03227714    -0.03500
C746        C  0.85731288  0.16756216  0.99224749    -0.18600
H747        H  0.88781711  0.17380890  0.78059908     0.10500
H748        H  0.89432340  0.17581741  0.85061266     0.10600
H749        H  0.82438022  0.18542067  0.86533853     0.10200
H750        H  0.81825039  0.18392828  0.79603251     0.11300
H751        H  0.87437534  0.17037993  0.91644002     0.11400
H752        H  0.84512995  0.20300881  0.92110174     0.13300
H753        H  0.84486476  0.21995024  0.98497833     0.09800
H754        H  0.84003049  0.21333944  0.05460670     0.11900
H755        H  0.85675580  0.14761661  0.04497398     0.08500
H756        H  0.86127478  0.15395794  0.97545571     0.11300
C757        C  0.81821485  0.15359937  0.55545125    -0.03300
C758        C  0.79647459  0.15547611  0.53970053    -0.05900
C759        C  0.79267612  0.15465420  0.49972450    -0.21000
C760        C  0.81030599  0.15166233  0.47462621     0.24700
C761        C  0.83192973  0.14953675  0.49043968    -0.18600
C762        C  0.83573911  0.15038431  0.53035339    -0.08500
C763        C  0.80653821  0.15245914  0.43224024    -0.18800
C764        C  0.81616124  0.14173103  0.40639016    -0.23600
C765        C  0.81441980  0.14381659  0.36379410     0.26800
C766        C  0.81944785  0.12672934  0.34040693    -0.20400
C767        C  0.82045794  0.12937578  0.30029308    -0.10000
C768        C  0.81668401  0.14939155  0.28251979    -0.10600
C769        C  0.81093974  0.16609272  0.30577900    -0.03500
C770        C  0.80986677  0.16340356  0.34599072    -0.18600
H771        H  0.78271985  0.15818430  0.55819776     0.10500
H772        H  0.77602783  0.15659997  0.48833662     0.10600
H773        H  0.84655491  0.14814334  0.47220236     0.10200
H774        H  0.85286069  0.14917795  0.54148182     0.11300
H775        H  0.79494474  0.16166677  0.42239060     0.11400
H776        H  0.82555809  0.13041668  0.41672962     0.13300
H777        H  0.82315654  0.11156772  0.35327798     0.09800
H778        H  0.82502603  0.11623336  0.28329513     0.11900
H779        H  0.80805580  0.18180141  0.29299743     0.08500
H780        H  0.80652280  0.17741700  0.36281624     0.11300
C781        C  0.15465953  0.33597857  0.72928687    -0.03300
C782        C  0.17346342  0.35911146  0.70885003    -0.05900
C783        C  0.17213970  0.36008504  0.66860970    -0.21000
C784        C  0.15227665  0.33786058  0.64775451     0.24700
C785        C  0.13284890  0.31504427  0.66827577    -0.18600
C786        C  0.13405018  0.31414466  0.70857505    -0.08500
C787        C  0.15255646  0.33935815  0.60480878    -0.18800
C788        C  0.14207335  0.31734622  0.58170337    -0.23600
C789        C  0.14413298  0.31873729  0.53877760     0.26800
C790        C  0.14157307  0.29623302  0.51853341    -0.13200
C791        C  0.14407983  0.29683706  0.47832939    -0.10000
C792        C  0.14893469  0.31992113  0.45728690    -0.10600
C793        C  0.15072461  0.34218602  0.47740730    -0.03500
C794        C  0.14831172  0.34161636  0.51764591    -0.18600
H795        H  0.18948499  0.37635269  0.72389916     0.10500
H796        H  0.18714777  0.37805046  0.65362435     0.10600
H797        H  0.11665682  0.29786767  0.65343403     0.10200
H798        H  0.11914373  0.29606904  0.72343517     0.11300
H799        H  0.16363709  0.35939141  0.59205016     0.11400
H800        H  0.13320083  0.29737253  0.59466345     0.13300
H801        H  0.13808121  0.27823587  0.53396280     0.09800
H802        H  0.14247256  0.27928663  0.46378355     0.11900
H803        H  0.15429329  0.36024147  0.46209745     0.08500
H804        H  0.14952630  0.35905819  0.53188416     0.11300
C805        C  0.17367887  0.31987650  0.95674155    -0.03300
C806        C  0.15549414  0.29596270  0.97627559    -0.05900
C807        C  0.15744249  0.29384223  0.01621776    -0.21000
C808        C  0.17730324  0.31567707  0.03762878     0.24700
C809        C  0.19622757  0.33920547  0.01790257    -0.18600
C810        C  0.19440835  0.34125791  0.97789987    -0.08500
C811        C  0.17731669  0.31332369  0.08039198    -0.18800
C812        C  0.18656462  0.33491186  0.10410206    -0.23600
C813        C  0.18400749  0.33285629  0.14687221     0.26800
C814        C  0.18461503  0.35438634  0.16734101    -0.20400
C815        C  0.18142469  0.35311472  0.20739581    -0.10000
C816        C  0.17777140  0.33030997  0.22807779    -0.10600
C817        C  0.17792835  0.30904152  0.20776288    -0.03500
C818        C  0.18106727  0.31029494  0.16760723    -0.18600
H819        H  0.13948511  0.27898759  0.96077993     0.10500
H820        H  0.14284665  0.27535546  0.03060300     0.10600
H821        H  0.21243317  0.35609329  0.03320118     0.10200
H822        H  0.20891671  0.35984457  0.96367206     0.11300
H823        H  0.16712883  0.29304475  0.09248498     0.11400
H824        H  0.19439436  0.35494386  0.09168388     0.13300
H825        H  0.18707684  0.37210535  0.15218428     0.09800
H826        H  0.18151671  0.36991635  0.22208759     0.11900
H827        H  0.17539494  0.29128376  0.22284851     0.08500
H828        H  0.18134416  0.29365186  0.15309949     0.11300
C829        C  0.08377470  0.28755794  0.31458002    -0.03300
C830        C  0.06845517  0.25912077  0.31380859    -0.05900
C831        C  0.04201428  0.24588412  0.29948125    -0.21000
C832        C  0.03020901  0.26064740  0.28530759     0.24700
C833        C  0.04523578  0.28918146  0.28722273    -0.18600
C834        C  0.07174206  0.30244960  0.30169112    -0.08500
C835        C  0.00240615  0.24521484  0.26871061    -0.18800
C836        C  0.99031758  0.25628357  0.24813884    -0.23600
C837        C  0.96278030  0.23988390  0.23136300     0.26800
C838        C  0.94659887  0.25179730  0.22668360    -0.20400
C839        C  0.92037753  0.23683152  0.21167720    -0.10000
C840        C  0.90989728  0.20966626  0.20057353    -0.10600
C841        C  0.92644314  0.19799627  0.20409463    -0.03500
C842        C  0.95262608  0.21294265  0.21923967    -0.18600
H843        H  0.07704284  0.24700398  0.32369693     0.10500
H844        H  0.03091837  0.22393351  0.29875652     0.10600
H845        H  0.03688652  0.30150492  0.27762485     0.10200
H846        H  0.08299969  0.32439174  0.30202221     0.11300
H847        H  0.99151261  0.22345343  0.27334835     0.11400
H848        H  0.00027661  0.27800376  0.24397048     0.13300
H849        H  0.95408288  0.27260584  0.23539326     0.09800
H850        H  0.90818794  0.24645303  0.20931427     0.11900
H851        H  0.91907871  0.17719450  0.19550769     0.08500
H852        H  0.96489535  0.20340018  0.22106991     0.11300
C853        C  0.24241007  0.36069864  0.36853559    -0.03300
C854        C  0.25535844  0.34523954  0.37039582    -0.05900
C855        C  0.28234084  0.35702724  0.38228163    -0.21000
C856        C  0.29686016  0.38437878  0.39309620     0.24700
C857        C  0.28419877  0.40009927  0.39018701    -0.18600
C858        C  0.25723752  0.38834936  0.37804821    -0.08500
C859        C  0.32528113  0.39592952  0.40646421    -0.18800
C860        C  0.33701513  0.41676962  0.43145594    -0.23600
C861        C  0.36564037  0.42929795  0.44451045     0.26800
C862        C  0.37803768  0.45563643  0.45963293    -0.20400
C863        C  0.40514410  0.46880179  0.47111558    -0.10000
C864        C  0.42048087  0.45579573  0.46816813    -0.10600
C865        C  0.40788479  0.42906213  0.45426937    -0.03500
C866        C  0.38072280  0.41589989  0.44255530    -0.18600
H867        H  0.24457703  0.32392119  0.36298722     0.10500
H868        H  0.29175121  0.34459585  0.38376782     0.10600
H869        H  0.29507738  0.42150981  0.39687939     0.10200
H870        H  0.24792093  0.40085674  0.37658465     0.11300
H871        H  0.33645533  0.38651251  0.39575958     0.11400
H872        H  0.32539383  0.42570914  0.44226821     0.13300
H873        H  0.36683965  0.46631448  0.46189532     0.09800
H874        H  0.41414155  0.48931102  0.48202925     0.11900
H875        H  0.41911065  0.41842798  0.45194831     0.08500
H876        H  0.37172914  0.39527101  0.43232137     0.11300
C877        C  0.50621490  0.99688257  0.60749463    -0.03300
C878        C  0.48209722  0.98120703  0.62820567    -0.05900
C879        C  0.48198014  0.98216362  0.66845007    -0.21000
C880        C  0.50601759  0.99827714  0.68895908     0.24700
C881        C  0.53037789  0.01331853  0.66842981    -0.18600
C882        C  0.53042551  0.01274978  0.62802144    -0.08500
C883        C  0.50454574  0.00039543  0.73141838    -0.18800
C884        C  0.52481940  0.00472209  0.75554098    -0.23600
C885        C  0.52219335  0.00617934  0.79789459     0.26800
C886        C  0.53276568  0.99419836  0.82245788    -0.20400
C887        C  0.52934190  0.99422325  0.86242256    -0.10000
C888        C  0.51602183  0.00699956  0.87856071    -0.10600
C889        C  0.50643269  0.01997054  0.85404981    -0.03500
C890        C  0.50927114  0.01936664  0.81404934    -0.18600
H891        H  0.46305757  0.96898644  0.61327571     0.10500
H892        H  0.46295378  0.97052684  0.68363621     0.10600
H893        H  0.54916652  0.02636288  0.68341758     0.10200
H894        H  0.54928594  0.02516373  0.61283629     0.11300
H895        H  0.48547853  0.99697264  0.74343158     0.11400
H896        H  0.54289370  0.00531544  0.74434441     0.13300
H897        H  0.54300763  0.98414955  0.81062126     0.09800
H898        H  0.53709621  0.98424363  0.88073471     0.11900
H899        H  0.49609045  0.02995080  0.86575557     0.08500
H900        H  0.50145204  0.02929292  0.79576601     0.11300
C901        C  0.49392963  0.01130569  0.37841169    -0.03300
C902        C  0.46817711  0.00119658  0.36168148    -0.05900
C903        C  0.46541663  0.00249294  0.32176784    -0.21000
C904        C  0.48823450  0.01305877  0.29778925     0.24700
C905        C  0.51406479  0.02351787  0.31446804    -0.18600
C906        C  0.51690424  0.02292356  0.35451753    -0.08500
C907        C  0.48463984  0.01266703  0.25543516    -0.18800
C908        C  0.49767849  0.00446569  0.23156727    -0.23600
C909        C  0.49360359  0.00224830  0.18917782     0.26800
C910        C  0.49645013  0.98242412  0.16929761    -0.20400
C911        C  0.49472721  0.98087722  0.12910271    -0.10000
C912        C  0.49069475  0.99954883  0.10776804    -0.10600
C913        C  0.48734561  0.01914993  0.12771640    -0.03500
C914        C  0.48863139  0.02040311  0.16809174    -0.18600
H915        H  0.45016481  0.99229972  0.37950793     0.10500
H916        H  0.44536214  0.99447858  0.30946533     0.10600
H917        H  0.53201230  0.03216186  0.29652143     0.10200
H918        H  0.53697310  0.03082950  0.36670680     0.11300
H919        H  0.46932752  0.01682973  0.24409436     0.11400
H920        H  0.51073916  0.99757354  0.24384617     0.13300
H921        H  0.50036451  0.96827462  0.18492979     0.09800
H922        H  0.49759902  0.96565564  0.11468734     0.11900
H923        H  0.48439582  0.03392857  0.11210024     0.08500
H924        H  0.48683222  0.03623334  0.18260385     0.11300
C925        C  0.58041430  0.04130046  0.02152323    -0.03300
C926        C  0.59559407  0.06973412  0.02264996    -0.05900
C927        C  0.62163238  0.08297630  0.03854704    -0.21000
C928        C  0.63309533  0.06819358  0.05395223     0.24700
C929        C  0.61820401  0.03968729  0.05165210    -0.18600
C930        C  0.59218049  0.02645279  0.03563656    -0.08500
C931        C  0.66045944  0.08350448  0.07200161    -0.18800
C932        C  0.67228725  0.07219419  0.09269048    -0.23600
C933        C  0.69976603  0.08835122  0.10971713     0.26800
C934        C  0.71597352  0.07640496  0.11372520    -0.20400
C935        C  0.74241817  0.09139906  0.12795779    -0.10000
C936        C  0.75308589  0.11861498  0.13891644    -0.10600
C937        C  0.73640061  0.13019348  0.13654340    -0.03500
C938        C  0.71000173  0.11522255  0.12217376    -0.18600
H939        H  0.58716535  0.08179788  0.01192431     0.10500
H940        H  0.63266024  0.10492176  0.03950635     0.10600
H941        H  0.62625021  0.02730837  0.06215205     0.10200
H942        H  0.58102261  0.00451057  0.03516756     0.11300
H943        H  0.67137785  0.10532256  0.06794477     0.11400
H944        H  0.66235127  0.05043306  0.09629246     0.13300
H945        H  0.70839819  0.05561502  0.10483420     0.09800
H946        H  0.75466565  0.08180830  0.12964965     0.11900
H947        H  0.74385764  0.15098541  0.14526792     0.08500
H948        H  0.69768765  0.12473892  0.12094621     0.11300
C949        C  0.18003815  0.84589094  0.71428055    -0.03300
C950        C  0.18200854  0.86911795  0.69691842    -0.05900
C951        C  0.18322580  0.87195577  0.65677642    -0.21000
C952        C  0.18281489  0.85184430  0.63302824     0.24700
C953        C  0.18124249  0.82875208  0.65033423    -0.18600
C954        C  0.17991527  0.82585159  0.69051635    -0.08500
C955        C  0.18229581  0.85478531  0.59044411    -0.18800
C956        C  0.19151223  0.84316185  0.56551289    -0.23600
C957        C  0.18991531  0.84498639  0.52288581     0.26800
C958        C  0.20834618  0.84180502  0.49987384    -0.20400
C959        C  0.20642278  0.84151134  0.45965696    -0.10000
C960        C  0.18568841  0.84395079  0.44145633    -0.10600
C961        C  0.16737100  0.84744754  0.46445630    -0.03500
C962        C  0.16946681  0.84800612  0.50475284    -0.18600
H963        H  0.18206425  0.88491867  0.71430762     0.10500
H964        H  0.18425201  0.88984273  0.64419204     0.10600
H965        H  0.18008939  0.81244678  0.63296256     0.10200
H966        H  0.17810890  0.80757859  0.70289823     0.11300
H967        H  0.17482590  0.86767026  0.57946271     0.11400
H968        H  0.20141585  0.83250628  0.57661259     0.13300
H969        H  0.22414364  0.83923656  0.51309390     0.09800
H970        H  0.22075417  0.83857676  0.44286375     0.11900
H971        H  0.15105098  0.84917729  0.45135474     0.08500
H972        H  0.15444858  0.84979031  0.52153191     0.11300
C973        C  0.15146972  0.82133952  0.94272193    -0.03300
C974        C  0.14438404  0.83795478  0.96374513    -0.05900
C975        C  0.14076866  0.83503734  0.00367228    -0.21000
C976        C  0.14454134  0.81576414  0.02358876     0.24700
C977        C  0.15076113  0.79849730  0.00246314    -0.18600
C978        C  0.15419440  0.80128334  0.96242936    -0.08500
C979        C  0.14240459  0.81473356  0.06634563    -0.18800
C980        C  0.15661685  0.80703384  0.08885838    -0.23600
C981        C  0.15789735  0.80964928  0.13155988     0.26800
C982        C  0.18096333  0.81260624  0.15051056    -0.20400
C983        C  0.18374595  0.81627597  0.19040364    -0.10000
C984        C  0.16335781  0.81683522  0.21245571    -0.10600
C985        C  0.13983752  0.81308666  0.19368538    -0.03500
C986        C  0.13708459  0.80947438  0.15361752    -0.18600
H987        H  0.14189388  0.85345032  0.94941032     0.10500
H988        H  0.13573606  0.84841155  0.01920620     0.10600
H989        H  0.15297793  0.78282451  0.01669441     0.10200
H990        H  0.15941515  0.78801485  0.94701930     0.11300
H991        H  0.13104616  0.82322479  0.07954079     0.11400
H992        H  0.17002203  0.80105929  0.07543388     0.13300
H993        H  0.19720361  0.81264077  0.13426345     0.09800
H994        H  0.20208786  0.81899382  0.20388632     0.11900
H995        H  0.12363549  0.81312585  0.20990171     0.08500
H996        H  0.11863841  0.80643230  0.14015312     0.11300
C997        C  0.24603402  0.87333189  0.85755442    -0.03300
C998        C  0.26079741  0.85967035  0.85592967    -0.05900
C999        C  0.28714486  0.87163774  0.87048941    -0.21000
C1000       C  0.29937195  0.89741757  0.88746269     0.24700
C1001       C  0.28491112  0.91148462  0.88833439    -0.18600
C1002       C  0.25850198  0.89953376  0.87348180    -0.08500
C1003       C  0.32743685  0.90895782  0.90268409    -0.18800
C1004       C  0.33842285  0.92857307  0.92967403    -0.23600
C1005       C  0.36679177  0.94019048  0.94374090     0.26800
C1006       C  0.38018031  0.96671954  0.95826615    -0.20400
C1007       C  0.40727049  0.97896465  0.96991424    -0.10000
C1008       C  0.42150908  0.96477173  0.96790808    -0.10600
C1009       C  0.40779420  0.93778656  0.95496964    -0.03500
C1010       C  0.38072298  0.92559531  0.94301080    -0.18600
H1011       H  0.25187879  0.83950120  0.84377581     0.10500
H1012       H  0.29788757  0.86047059  0.86903349     0.10600
H1013       H  0.29390355  0.93174738  0.90004601     0.10200
H1014       H  0.24768950  0.91061505  0.87509820     0.11300
H1015       H  0.33934288  0.90053957  0.89120026     0.11400
H1016       H  0.32671054  0.93723096  0.94107070     0.13300
H1017       H  0.36984600  0.97828435  0.95967792     0.09800
H1018       H  0.41714963  0.99969291  0.98014037     0.11900
H1019       H  0.41812597  0.92623346  0.95339100     0.08500
H1020       H  0.37084227  0.90475361  0.93341892     0.11300
C1021       C  0.81437051  0.65801241  0.78033092    -0.03300
C1022       C  0.81230248  0.63604697  0.80160277    -0.05900
C1023       C  0.80868013  0.63475747  0.84154060    -0.21000
C1024       C  0.80730926  0.65547404  0.86133598     0.24700
C1025       C  0.80850976  0.67709234  0.84002058    -0.18600
C1026       C  0.81204370  0.67834396  0.79991550    -0.08500
C1027       C  0.80503214  0.65384254  0.90412074    -0.18800
C1028       C  0.81439305  0.67581242  0.92701025    -0.23600
C1029       C  0.81587572  0.67451764  0.96973937     0.26800
C1030       C  0.83607642  0.69720608  0.98929263    -0.20400
C1031       C  0.83934615  0.69648964  0.02912839    -0.10000
C1032       C  0.82219299  0.67313833  0.05054578    -0.10600
C1033       C  0.80125016  0.65071261  0.03125019    -0.03500
C1034       C  0.79811482  0.65135962  0.99121839    -0.18600
H1035       H  0.81388807  0.61996019  0.78748687     0.10500
H1036       H  0.80761778  0.61779121  0.85717369     0.10600
H1037       H  0.80669465  0.69302937  0.85411715     0.10200
H1038       H  0.81332690  0.69541900  0.78434661     0.11300
H1039       H  0.79790725  0.63409626  0.91715674     0.11400
H1040       H  0.82391063  0.69580942  0.91399486     0.13300
H1041       H  0.84986793  0.71536900  0.97352841     0.09800
H1042       H  0.85553784  0.71421444  0.04309335     0.11900
H1043       H  0.78756802  0.63249856  0.04696972     0.08500
H1044       H  0.78178092  0.63376267  0.97729221     0.11300
C1045       C  0.84707376  0.66735562  0.55256112    -0.03300
C1046       C  0.84577126  0.64464867  0.53452749    -0.05900
C1047       C  0.84645167  0.64309327  0.49436195    -0.21000
C1048       C  0.84880097  0.66428091  0.47105229     0.24700
C1049       C  0.85079709  0.68739496  0.48900740    -0.18600
C1050       C  0.84991565  0.68887411  0.52934909    -0.08500
C1051       C  0.84729378  0.66051565  0.42838517    -0.18800
C1052       C  0.85645148  0.68095048  0.40266819    -0.23600
C1053       C  0.85414542  0.67664159  0.36009516     0.26800
C1054       C  0.87220032  0.69778132  0.33600095    -0.20400
C1055       C  0.86991468  0.69512937  0.29585353    -0.10000
C1056       C  0.84920290  0.67135821  0.27872798    -0.10600
C1057       C  0.83121913  0.65005502  0.30279697    -0.03500
C1058       C  0.83363988  0.65263514  0.34301987    -0.18600
H1059       H  0.84337756  0.62759796  0.55140412     0.10500
H1060       H  0.84473351  0.62500942  0.48140150     0.10600
H1061       H  0.85201206  0.70392659  0.47214020     0.10200
H1062       H  0.85077550  0.70656766  0.54229982     0.11300
H1063       H  0.83901793  0.63992813  0.41789271     0.11400
H1064       H  0.86698217  0.70173171  0.41289581     0.13300
H1065       H  0.88803122  0.71655133  0.34830332     0.09800
H1066       H  0.88395623  0.71207430  0.27824098     0.11900
H1067       H  0.81486838  0.63159988  0.29057155     0.08500
H1068       H  0.81882451  0.63614535  0.36050035     0.11300
C1069       C  0.75325197  0.62041924  0.63642267    -0.03300
C1070       C  0.74053393  0.59210513  0.63268015    -0.05900
C1071       C  0.71395625  0.57719367  0.61896747    -0.21000
C1072       C  0.69959856  0.59022792  0.60832239     0.24700
C1073       C  0.71199092  0.61847745  0.61327977    -0.18600
C1074       C  0.73855629  0.63339074  0.62705241    -0.08500
C1075       C  0.67172187  0.57365120  0.59266076    -0.18800
C1076       C  0.66006127  0.58380969  0.56936368    -0.23600
C1077       C  0.63216142  0.56754272  0.55379042     0.26800
C1078       C  0.61818438  0.58102883  0.54356295    -0.20400
C1079       C  0.59176099  0.56664623  0.52931072    -0.10000
C1080       C  0.57879901  0.53840407  0.52446027    -0.10600
C1081       C  0.59303274  0.52492241  0.53366773    -0.03500
C1082       C  0.61947369  0.53933147  0.54818731    -0.18600
H1083       H  0.75122601  0.58145629  0.63985926     0.10500
H1084       H  0.70476408  0.55543319  0.61591807     0.10600
H1085       H  0.70127067  0.62919058  0.60691557     0.10200
H1086       H  0.74765762  0.65513922  0.63000554     0.11300
H1087       H  0.66080915  0.55229252  0.60007928     0.11400
H1088       H  0.67103051  0.60514176  0.56183688     0.13300
H1089       H  0.62759160  0.60276516  0.54724825     0.09800
H1090       H  0.58140431  0.57767721  0.52243168     0.11900
H1091       H  0.58362521  0.50318503  0.53014475     0.08500
H1092       H  0.62990918  0.52833083  0.55454494     0.11300
C1093       C  0.91015196  0.70728757  0.69943332    -0.03300
C1094       C  0.92395108  0.73575039  0.69899605    -0.05900
C1095       C  0.95031767  0.75066536  0.71349301    -0.21000
C1096       C  0.96337825  0.73754773  0.72926652     0.24700
C1097       C  0.94967503  0.70902385  0.72942520    -0.18600
C1098       C  0.92335098  0.69409227  0.71466721    -0.08500
C1099       C  0.99161021  0.75438644  0.74363172    -0.18800
C1100       C  0.00321065  0.74571862  0.76959096    -0.23600
C1101       C  0.03186939  0.76235184  0.78241399     0.26800
C1102       C  0.04520586  0.74906302  0.79655485    -0.20400
C1103       C  0.07250414  0.76376771  0.80719686    -0.10000
C1104       C  0.08698498  0.79218905  0.80451642    -0.10600
C1105       C  0.07339308  0.80561293  0.79185758    -0.03500
C1106       C  0.04612357  0.79088165  0.78090309    -0.18600
H1107       H  0.91437187  0.74654629  0.68747632     0.10500
H1108       H  0.96048955  0.77259205  0.71267949     0.10600
H1109       H  0.95927623  0.69808819  0.74018824     0.10200
H1110       H  0.91326460  0.67217848  0.71546158     0.11300
H1111       H  0.00312139  0.77476263  0.73211808     0.11400
H1112       H  0.99173694  0.72532120  0.78106490     0.13300
H1113       H  0.03463354  0.72715701  0.79852983     0.09800
H1114       H  0.08232228  0.75283774  0.81729468     0.11900
H1115       H  0.08395483  0.82750421  0.78978971     0.08500
H1116       H  0.03635803  0.80199076  0.77156446     0.11300
loop_ 
_geom_bond_atom_site_label_1 
_geom_bond_atom_site_label_2 
_geom_bond_distance 
_geom_bond_site_symmetry_2 
_ccdc_geom_bond_type 
O1           Ni9   1.917       .  S
O1           C11   1.282       .  A
O2           Ni9   1.917       .  S
O2           C12   1.282       .  A
O3           Ni9   1.926       .  S
O3           C13   1.283       .  A
O4           Ni9   1.927       .  S
O4           C14   1.283       .  A
O5          Ni10   1.915       .  S
O5           C14   1.282       .  A
O6          Ni10   1.912       .  S
O6           C13   1.281       .  A
O7          Ni10   1.915       .  S
O7           C12   1.281       .  A
O8          Ni10   1.918       .  S
O8           C11   1.282       .  A
Ni9         Ni10   2.386       .  S
C11        C1093   1.482       .  S
C12        C1069   1.481       .  S
C13        C1021   1.484       .  S
C14        C1045   1.486       .  S
O15         Ni23   1.924       .  S
O15          C25   1.283       .  A
O16         Ni23   1.927       .  S
O16          C26   1.283       .  A
O17         Ni23   1.916       .  S
O17          C27   1.281       .  A
O18         Ni23   1.913       .  S
O18          C28   1.281       .  A
O19         Ni24   1.922       .  S
O19          C28   1.283       .  A
O20         Ni24   1.924       .  S
O20          C27   1.283       .  A
O21         Ni24   1.911       .  S
O21          C26   1.281       .  A
O22         Ni24   1.912       .  S
O22          C25   1.280       .  A
Ni23        Ni24   2.386       .  S
C25        C1104   1.480       .  S
C26         C997   1.484       .  S
C27         C949   1.485       .  S
C28         C973   1.481       .  S
O29         Ni37   1.916   1_554  S
O29          C39   1.281       .  A
O30         Ni37   1.913       .  S
O30          C40   1.281   1_545  A
O31         Ni37   1.922   1_554  S
O31          C41   1.283   1_545  A
O32         Ni37   1.923       .  S
O32          C42   1.283       .  A
O33         Ni38   1.915       .  S
O33          C42   1.280   1_565  A
O34         Ni38   1.914   1_554  S
O34          C41   1.281       .  A
O35         Ni38   1.925       .  S
O35          C40   1.283       .  A
O36         Ni38   1.918   1_544  S
O36          C39   1.282       .  A
Ni37        Ni38   2.386   1_545  S
C39         C925   1.481       .  S
C40        C1008   1.483       .  S
C41         C912   1.482       .  S
C42         C888   1.478       .  S
O43         Ni51   1.924       .  S
O43          C53   1.283       .  A
O44         Ni51   1.922       .  S
O44          C54   1.283       .  A
O45         Ni51   1.917       .  S
O45          C55   1.282       .  A
O46         Ni51   1.919       .  S
O46          C56   1.282       .  A
O47         Ni52   1.923       .  S
O47          C56   1.283       .  A
O48         Ni52   1.922       .  S
O48          C55   1.283       .  A
O49         Ni52   1.910       .  S
O49          C54   1.280       .  A
O50         Ni52   1.910       .  S
O50          C53   1.280       .  A
Ni51        Ni52   2.386       .  S
C53         C829   1.481       .  S
C54         C853   1.480       .  S
C55         C816   1.484       .  S
C56         C792   1.486       .  S
O57         Ni65   1.917       .  S
O57          C67   1.282       .  A
O58         Ni65   1.916       .  S
O58          C68   1.282       .  A
O59         Ni65   1.918       .  S
O59          C69   1.282       .  A
O60         Ni65   1.919       .  S
O60          C70   1.282       .  A
O61         Ni66   1.920       .  S
O61          C70   1.282       .  A
O62         Ni66   1.918       .  S
O62          C69   1.282       .  A
O63         Ni66   1.918       .  S
O63          C68   1.282       .  A
O64         Ni66   1.917       .  S
O64          C67   1.282       .  A
Ni65        Ni66   2.386       .  S
C67         C840   1.481       .  S
C68         C936   1.481       .  S
C69         C768   1.483       .  S
C70         C744   1.485       .  S
O71         Ni79   1.910       .  S
O71          C81   1.280       .  A
O72         Ni79   1.910       .  S
O72          C82   1.280       .  A
O73         Ni79   1.927       .  S
O73          C83   1.284       .  A
O74         Ni79   1.929       .  S
O74          C84   1.284       .  A
O75         Ni80   1.912       .  S
O75          C84   1.281       .  A
O76         Ni80   1.911       .  S
O76          C83   1.280       .  A
O77         Ni80   1.924       .  S
O77          C82   1.283       .  A
O78         Ni80   1.921       .  S
O78          C81   1.283       .  A
Ni79        Ni80   2.386       .  S
C81        C1080   1.480       .  S
C82         C864   1.481       .  S
C83         C685   1.482       .  S
C84         C709   1.486       .  S
O85         Ni93   1.921       .  S
O85          C95   1.283       .  A
O86         Ni93   1.924       .  S
O86          C96   1.283       .  A
O87         Ni93   1.919       .  S
O87          C97   1.282       .  A
O88         Ni93   1.918       .  S
O88          C98   1.282       .  A
O89         Ni94   1.921       .  S
O89          C98   1.283       .  A
O90         Ni94   1.922       .  S
O90          C97   1.283       .  A
O91         Ni94   1.911       .  S
O91          C96   1.280       .  A
O92         Ni94   1.912       .  S
O92          C95   1.281       .  A
Ni93        Ni94   2.386       .  S
C95         C661   1.481       .  S
C96         C637   1.482       .  S
C97         C781   1.485       .  S
C98         C805   1.483       .  S
O99        Ni107   1.917       .  S
O99         C109   1.282       .  A
O100       Ni107   1.915       .  S
O100        C110   1.281       .  A
O101       Ni107   1.921       .  S
O101        C111   1.282       .  A
O102       Ni107   1.922       .  S
O102        C112   1.283       .  A
O103       Ni108   1.915       .  S
O103        C112   1.281       .  A
O104       Ni108   1.919       .  S
O104        C111   1.282       .  A
O105       Ni108   1.924       .  S
O105        C110   1.283       .  A
O106       Ni108   1.921       .  S
O106        C109   1.282       .  A
Ni107      Ni108   2.386       .  S
C109        C672   1.482       .  S
C110        C624   1.484       .  S
C111        C565   1.481       .  S
C112        C589   1.483       .  S
O113       Ni121   1.916       .  S
O113        C123   1.282       .  A
O114       Ni121   1.912   1_456  S
O114        C124   1.281       .  A
O115       Ni121   1.918       .  S
O115        C125   1.282   1_655  A
O116       Ni121   1.919   1_556  S
O116        C126   1.282       .  A
O117       Ni122   1.920   1_556  S
O117        C126   1.282   1_455  A
O118       Ni122   1.921       .  S
O118        C125   1.282       .  A
O119       Ni122   1.922   1_556  S
O119        C124   1.283       .  A
O120       Ni122   1.917       .  S
O120        C123   1.282   1_455  A
Ni121      Ni122   2.387   1_655  S
C123        C541   1.481       .  S
C124        C648   1.482       .  S
C125        C528   1.481       .  S
C126        C493   1.480       .  S
O127       Ni135   1.916       .  S
O127        C137   1.281       .  A
O128       Ni135   1.917       .  S
O128        C138   1.282       .  A
O129       Ni135   1.929       .  S
O129        C139   1.284       .  A
O130       Ni135   1.927       .  S
O130        C140   1.284       .  A
O131       Ni136   1.915       .  S
O131        C140   1.281       .  A
O132       Ni136   1.916       .  S
O132        C139   1.282       .  A
O133       Ni136   1.919       .  S
O133        C138   1.282       .  A
O134       Ni136   1.916       .  S
O134        C137   1.282       .  A
Ni135      Ni136   2.385       .  S
C137        C445   1.480       .  S
C138        C480   1.483       .  S
C139        C432   1.488       .  S
C140        C408   1.486       .  S
O141       Ni149   1.915       .  S
O141        C151   1.281       .  A
O142       Ni149   1.916       .  S
O142        C152   1.281       .  A
O143       Ni149   1.926       .  S
O143        C153   1.284       .  A
O144       Ni149   1.926       .  S
O144        C154   1.283       .  A
O145       Ni150   1.913       .  S
O145        C154   1.281       .  A
O146       Ni150   1.915       .  S
O146        C153   1.281       .  A
O147       Ni150   1.919       .  S
O147        C152   1.282       .  A
O148       Ni150   1.916       .  S
O148        C151   1.282       .  A
Ni149      Ni150   2.386       .  S
C151        C456   1.480       .  S
C152        C552   1.482       .  S
C153       C1056   1.486       .  S
C154       C1032   1.483       .  S
O155       Ni163   1.917   1_545  S
O155        C165   1.282       .  A
O156       Ni163   1.923       .  S
O156        C166   1.283       .  A
O157       Ni163   1.914       .  S
O157        C167   1.281       .  A
O158       Ni163   1.915       .  S
O158        C168   1.281   1_565  A
O159       Ni164   1.923       .  S
O159        C168   1.282       .  A
O160       Ni164   1.922       .  S
O160        C167   1.282   1_545  A
O161       Ni164   1.916       .  S
O161        C166   1.281   1_545  A
O162       Ni164   1.921       .  S
O162        C165   1.283       .  A
Ni163      Ni164   2.386   1_565  S
C165        C613   1.484       .  S
C166        C469   1.484       .  S
C167        C877   1.481       .  S
C168        C901   1.477       .  S
O169       Ni177   1.914       .  S
O169        C179   1.281       .  A
O170       Ni177   1.912       .  S
O170        C180   1.281       .  A
O171       Ni177   1.924       .  S
O171        C181   1.283       .  A
O172       Ni177   1.926       .  S
O172        C182   1.284       .  A
O173       Ni178   1.915       .  S
O173        C182   1.281       .  A
O174       Ni178   1.919       .  S
O174        C181   1.282       .  A
O175       Ni178   1.926       .  S
O175        C180   1.284       .  A
O176       Ni178   1.925       .  S
O176        C179   1.283       .  A
Ni177      Ni178   2.386       .  S
C179        C576   1.479       .  S
C180        C600   1.484       .  S
C181        C373   1.486       .  S
C182        C360   1.484       .  S
O183       Ni191   1.917       .  S
O183        C193   1.281       .  A
O184       Ni191   1.915   1_554  S
O184        C194   1.282       .  A
O185       Ni191   1.923       .  S
O185        C195   1.283       .  A
O186       Ni191   1.926   1_554  S
O186        C196   1.283       .  A
O187       Ni192   1.915   1_554  S
O187        C196   1.282       .  A
O188       Ni192   1.912       .  S
O188        C195   1.281       .  A
O189       Ni192   1.924   1_554  S
O189        C194   1.283       .  A
O190       Ni192   1.924       .  S
O190        C193   1.283       .  A
Ni191      Ni192   2.385       .  S
C193        C696   1.484       .  S
C194        C720   1.484       .  S
C195        C336   1.482       .  S
C196        C384   1.486       .  S
O197       Ni205   1.925       .  S
O197        C207   1.283       .  A
O198       Ni205   1.923       .  S
O198        C208   1.283       .  A
O199       Ni205   1.912       .  S
O199        C209   1.281       .  A
O200       Ni205   1.915       .  S
O200        C210   1.281       .  A
O201       Ni206   1.923       .  S
O201        C210   1.283       .  A
O202       Ni206   1.924       .  S
O202        C209   1.283       .  A
O203       Ni206   1.915       .  S
O203        C208   1.282       .  A
O204       Ni206   1.916       .  S
O204        C207   1.282       .  A
Ni205      Ni206   2.385       .  S
C207        C349   1.485       .  S
C208        C312   1.484       .  S
C209        C984   1.483       .  S
C210        C960   1.484       .  S
O211       Ni219   1.922       .  S
O211        C221   1.283       .  A
O212       Ni219   1.923       .  S
O212        C222   1.282       .  A
O213       Ni219   1.915       .  S
O213        C223   1.282   1_655  A
O214       Ni219   1.924       .  S
O214        C224   1.283       .  A
O215       Ni220   1.918   1_655  S
O215        C224   1.282       .  A
O216       Ni220   1.924       .  S
O216        C223   1.283       .  A
O217       Ni220   1.916       .  S
O217        C222   1.282   1_455  A
O218       Ni220   1.916       .  S
O218        C221   1.281   1_455  A
Ni219      Ni220   2.386   1_655  S
C221        C517   1.477       .  S
C222        C504   1.481       .  S
C223        C301   1.484       .  S
C224        C277   1.486       .  S
O225       Ni233   1.919       .  S
O225        C235   1.282       .  A
O226       Ni233   1.918       .  S
O226        C236   1.282       .  A
O227       Ni233   1.920       .  S
O227        C237   1.282       .  A
O228       Ni233   1.919       .  S
O228        C238   1.282       .  A
O229       Ni234   1.921       .  S
O229        C238   1.282       .  A
O230       Ni234   1.921       .  S
O230        C237   1.283       .  A
O231       Ni234   1.923       .  S
O231        C236   1.282       .  A
O232       Ni234   1.916       .  S
O232        C235   1.282       .  A
Ni233      Ni234   2.386       .  S
C235        C757   1.482       .  S
C236        C733   1.485       .  S
C237        C288   1.486       .  S
C238        C253   1.478       .  S
O239       Ni247   1.919       .  S
O239        C249   1.282       .  A
O240       Ni247   1.918       .  S
O240        C250   1.281       .  A
O241       Ni247   1.923       .  S
O241        C251   1.283       .  A
O242       Ni247   1.927       .  S
O242        C252   1.283       .  A
O243       Ni248   1.914       .  S
O243        C252   1.281       .  A
O244       Ni248   1.923       .  S
O244        C251   1.283       .  A
O245       Ni248   1.919       .  S
O245        C250   1.281       .  A
O246       Ni248   1.915       .  S
O246        C249   1.282       .  A
Ni247      Ni248   2.386       .  S
C249        C325   1.481       .  S
C250        C264   1.473       .  S
C251        C421   1.488       .  S
C252        C397   1.484       .  S
C253        C254   1.405       .  A
C253        C258   1.404       .  A
C254        C255   1.401       .  A
C254        H267   1.083       .  S
C255        C256   1.403       .  A
C255        H268   1.083       .  S
C256        C257   1.405       .  A
C256        C259   1.481       .  S
C257        C258   1.397       .  A
C257        H269   1.083       .  S
C258        H270   1.083       .  S
C259        C260   1.345   1_545  D
C259        H271   1.087   1_545  S
C260        C261   1.479       .  S
C260        H272   1.087   1_565  S
C261        C262   1.402       .  A
C261        C266   1.405       .  A
C262        C263   1.398       .  A
C262        H273   1.083       .  S
C263        C264   1.403       .  A
C263        H274   1.083       .  S
C264        C265   1.405       .  A
C265        C266   1.400       .  A
C265        H275   1.083       .  S
C266        H276   1.083       .  S
C277        C278   1.405       .  A
C277        C282   1.405       .  A
C278        C279   1.402       .  A
C278        H291   1.083       .  S
C279        C280   1.407       .  A
C279        H292   1.083       .  S
C280        C281   1.411       .  A
C280        C283   1.498       .  S
C281        C282   1.399       .  A
C281        H293   1.079       .  S
C282        H294   1.083       .  S
C283        C284   1.351       .  D
C283        H295   1.085       .  S
C284        C285   1.491       .  S
C284        H296   1.082       .  S
C285        C286   1.404       .  A
C285        C290   1.408       .  A
C286        C287   1.398       .  A
C286        H297   1.083       .  S
C287        C288   1.405       .  A
C287        H298   1.083       .  S
C288        C289   1.408       .  A
C289        C290   1.402       .  A
C289        H299   1.083       .  S
C290        H300   1.081       .  S
C301        C302   1.405       .  A
C301        C306   1.407       .  A
C302        C303   1.397       .  A
C302        H315   1.083       .  S
C303        C304   1.403       .  A
C303        H316   1.083       .  S
C304        C305   1.408       .  A
C304        C307   1.488       .  S
C305        C306   1.402       .  A
C305        H317   1.081       .  S
C306        H318   1.083       .  S
C307        C308   1.349       .  D
C307        H319   1.085       .  S
C308        C309   1.490       .  S
C308        H320   1.084       .  S
C309        C310   1.404       .  A
C309        C314   1.408       .  A
C310        C311   1.401       .  A
C310        H321   1.083       .  S
C311        C312   1.406       .  A
C311        H322   1.083       .  S
C312        C313   1.406       .  A
C313        C314   1.397       .  A
C313        H323   1.083       .  S
C314        H324   1.081       .  S
C325        C326   1.405       .  A
C325        C330   1.406       .  A
C326        C327   1.396       .  A
C326        H339   1.083       .  S
C327        C328   1.403       .  A
C327        H340   1.084       .  S
C328        C329   1.409       .  A
C328        C331   1.487       .  S
C329        C330   1.400       .  A
C329        H341   1.081       .  S
C330        H342   1.083       .  S
C331        C332   1.347       .  D
C331        H343   1.086       .  S
C332        C333   1.485       .  S
C332        H344   1.084       .  S
C333        C334   1.402       .  A
C333        C338   1.408       .  A
C334        C335   1.397       .  A
C334        H345   1.084       .  S
C335        C336   1.406       .  A
C335        H346   1.083       .  S
C336        C337   1.405       .  A
C337        C338   1.399       .  A
C337        H347   1.083       .  S
C338        H348   1.082       .  S
C349        C350   1.405       .  A
C349        C354   1.407       .  A
C350        C351   1.397       .  A
C350        H363   1.083       .  S
C351        C352   1.403       .  A
C351        H364   1.083       .  S
C352        C353   1.409       .  A
C352        C355   1.490       .  S
C353        C354   1.402       .  A
C353        H365   1.081       .  S
C354        H366   1.083       .  S
C355        C356   1.349   1_565  D
C355        H367   1.085   1_565  S
C356        C357   1.490       .  S
C356        H368   1.084   1_545  S
C357        C358   1.403       .  A
C357        C362   1.409       .  A
C358        C359   1.399       .  A
C358        H369   1.083       .  S
C359        C360   1.406       .  A
C359        H370   1.083       .  S
C360        C361   1.405       .  A
C361        C362   1.400       .  A
C361        H371   1.083       .  S
C362        H372   1.081       .  S
C373        C374   1.407       .  A
C373        C378   1.406       .  A
C374        C375   1.402       .  A
C374        H387   1.083       .  S
C375        C376   1.405       .  A
C375        H388   1.083       .  S
C376        C377   1.408       .  A
C376        C379   1.492       .  S
C377        C378   1.398       .  A
C377        H389   1.082       .  S
C378        H390   1.083       .  S
C379        C380   1.350       .  D
C379        H391   1.084       .  S
C380        C381   1.492       .  S
C380        H392   1.085       .  S
C381        C382   1.404       .  A
C381        C386   1.410       .  A
C382        C383   1.397       .  A
C382        H393   1.083       .  S
C383        C384   1.405       .  A
C383        H394   1.083       .  S
C384        C385   1.407       .  A
C385        C386   1.404       .  A
C385        H395   1.083       .  S
C386        H396   1.080       .  S
C397        C398   1.405       .  A
C397        C402   1.406       .  A
C398        C399   1.397       .  A
C398        H411   1.083       .  S
C399        C400   1.403       .  A
C399        H412   1.083       .  S
C400        C401   1.410       .  A
C400        C403   1.491       .  S
C401        C402   1.403       .  A
C401        H413   1.081       .  S
C402        H414   1.083       .  S
C403        C404   1.349       .  D
C403        H415   1.084       .  S
C404        C405   1.492       .  S
C404        H416   1.084       .  S
C405        C406   1.404       .  A
C405        C410   1.410       .  A
C406        C407   1.398       .  A
C406        H417   1.083       .  S
C407        C408   1.406       .  A
C407        H418   1.083       .  S
C408        C409   1.406       .  A
C409        C410   1.402       .  A
C409        H419   1.083       .  S
C410        H420   1.081       .  S
C421        C422   1.407       .  A
C421        C426   1.407       .  A
C422        C423   1.401   1_556  A
C422        H435   1.083       .  S
C423        C424   1.404       .  A
C423        H436   1.083       .  S
C424        C425   1.408       .  A
C424        C427   1.492       .  S
C425        C426   1.401   1_554  A
C425        H437   1.082       .  S
C426        H438   1.083       .  S
C427        C428   1.348       .  D
C427        H439   1.086       .  S
C428        C429   1.491       .  S
C428        H440   1.086       .  S
C429        C430   1.403       .  A
C429        C434   1.409       .  A
C430        C431   1.398       .  A
C430        H441   1.084       .  S
C431        C432   1.407       .  A
C431        H442   1.083       .  S
C432        C433   1.407       .  A
C433        C434   1.404       .  A
C433        H443   1.083       .  S
C434        H444   1.082       .  S
C445        C446   1.406       .  A
C445        C450   1.405       .  A
C446        C447   1.398       .  A
C446        H459   1.083       .  S
C447        C448   1.403       .  A
C447        H460   1.083       .  S
C448        C449   1.407       .  A
C448        C451   1.484       .  S
C449        C450   1.397       .  A
C449        H461   1.081       .  S
C450        H462   1.083       .  S
C451        C452   1.348       .  D
C451        H463   1.084       .  S
C452        C453   1.485       .  S
C452        H464   1.085       .  S
C453        C454   1.403       .  A
C453        C458   1.407       .  A
C454        C455   1.398       .  A
C454        H465   1.083       .  S
C455        C456   1.405       .  A
C455        H466   1.083       .  S
C456        C457   1.405       .  A
C457        C458   1.397       .  A
C457        H467   1.083       .  S
C458        H468   1.081       .  S
C469        C470   1.406       .  A
C469        C474   1.406       .  A
C470        C471   1.399       .  A
C470        H483   1.083       .  S
C471        C472   1.404       .  A
C471        H484   1.083       .  S
C472        C473   1.408       .  A
C472        C475   1.489       .  S
C473        C474   1.399       .  A
C473        H485   1.081       .  S
C474        H486   1.083       .  S
C475        C476   1.349       .  D
C475        H487   1.084       .  S
C476        C477   1.489       .  S
C476        H488   1.084       .  S
C477        C478   1.404       .  A
C477        C482   1.408       .  A
C478        C479   1.399       .  A
C478        H489   1.083       .  S
C479        C480   1.405       .  A
C479        H490   1.083       .  S
C480        C481   1.406       .  A
C481        C482   1.399       .  A
C481        H491   1.083       .  S
C482        H492   1.081       .  S
C493        C494   1.405       .  A
C493        C498   1.406   1_655  A
C494        C495   1.398       .  A
C494        H507   1.083       .  S
C495        C496   1.402       .  A
C495        H508   1.083       .  S
C496        C497   1.407   1_655  A
C496        C499   1.483       .  S
C497        C498   1.401       .  A
C497        H509   1.082       .  S
C498        H510   1.083       .  S
C499        C500   1.346       .  D
C499        H511   1.087       .  S
C500        C501   1.485       .  S
C500        H512   1.086       .  S
C501        C502   1.404       .  A
C501        C506   1.405   1_655  A
C502        C503   1.402       .  A
C502        H513   1.083       .  S
C503        C504   1.406       .  A
C503        H514   1.083       .  S
C504        C505   1.405   1_655  A
C505        C506   1.397       .  A
C505        H515   1.083       .  S
C506        H516   1.083       .  S
C517        C518   1.405   1_655  A
C517        C522   1.404       .  A
C518        C519   1.400       .  A
C518        H531   1.083       .  S
C519        C520   1.403       .  A
C519        H532   1.083       .  S
C520        C521   1.406   1_455  A
C520        C523   1.484       .  S
C521        C522   1.399       .  A
C521        H533   1.083       .  S
C522        H534   1.083       .  S
C523        C524   1.346       .  D
C523        H535   1.086       .  S
C524        C525   1.486       .  S
C524        H536   1.087       .  S
C525        C526   1.403       .  A
C525        C530   1.407   1_455  A
C526        C527   1.399       .  A
C526        H537   1.083       .  S
C527        C528   1.406       .  A
C527        H538   1.083       .  S
C528        C529   1.405   1_455  A
C529        C530   1.399       .  A
C529        H539   1.083       .  S
C530        H540   1.082       .  S
C541        C542   1.405       .  A
C541        C546   1.406       .  A
C542        C543   1.398       .  A
C542        H555   1.083   1_655  S
C543        C544   1.404       .  A
C543        H556   1.083       .  S
C544        C545   1.407       .  A
C544        C547   1.487       .  S
C545        C546   1.398       .  A
C545        H557   1.081       .  S
C546        H558   1.083       .  S
C547        C548   1.349       .  D
C547        H559   1.084       .  S
C548        C549   1.487       .  S
C548        H560   1.085       .  S
C549        C550   1.404       .  A
C549        C554   1.408       .  A
C550        C551   1.398       .  A
C550        H561   1.083       .  S
C551        C552   1.406       .  A
C551        H562   1.083       .  S
C552        C553   1.405       .  A
C553        C554   1.398       .  A
C553        H563   1.083       .  S
C554        H564   1.081       .  S
C565        C566   1.406       .  A
C565        C570   1.405       .  A
C566        C567   1.402       .  A
C566        H579   1.083       .  S
C567        C568   1.403       .  A
C567        H580   1.083       .  S
C568        C569   1.405       .  A
C568        C571   1.485       .  S
C569        C570   1.397       .  A
C569        H581   1.083       .  S
C570        H582   1.083       .  S
C571        C572   1.345       .  D
C571        H583   1.086       .  S
C572        C573   1.483       .  S
C572        H584   1.087       .  S
C573        C574   1.402       .  A
C573        C578   1.407       .  A
C574        C575   1.396   1_556  A
C574        H585   1.083       .  S
C575        C576   1.404       .  A
C575        H586   1.083       .  S
C576        C577   1.406       .  A
C577        C578   1.404   1_554  A
C577        H587   1.083       .  S
C578        H588   1.083       .  S
C589        C590   1.406       .  A
C589        C594   1.406       .  A
C590        C591   1.398       .  A
C590        H603   1.083       .  S
C591        C592   1.403       .  A
C591        H604   1.083       .  S
C592        C593   1.409       .  A
C592        C595   1.489       .  S
C593        C594   1.400       .  A
C593        H605   1.081       .  S
C594        H606   1.083       .  S
C595        C596   1.347       .  D
C595        H607   1.086       .  S
C596        C597   1.487       .  S
C596        H608   1.085       .  S
C597        C598   1.402       .  A
C597        C602   1.409       .  A
C598        C599   1.397       .  A
C598        H609   1.084       .  S
C599        C600   1.407       .  A
C599        H610   1.083       .  S
C600        C601   1.406       .  A
C601        C602   1.401       .  A
C601        H611   1.083       .  S
C602        H612   1.081       .  S
C613        C614   1.406       .  A
C613        C618   1.406       .  A
C614        C615   1.400       .  A
C614        H627   1.083       .  S
C615        C616   1.404       .  A
C615        H628   1.083       .  S
C616        C617   1.408       .  A
C616        C619   1.491       .  S
C617        C618   1.399       .  A
C617        H629   1.081       .  S
C618        H630   1.083       .  S
C619        C620   1.349       .  D
C619        H631   1.084       .  S
C620        C621   1.490       .  S
C620        H632   1.084       .  S
C621        C622   1.404       .  A
C621        C626   1.409       .  A
C622        C623   1.397       .  A
C622        H633   1.083       .  S
C623        C624   1.405       .  A
C623        H634   1.083       .  S
C624        C625   1.406       .  A
C625        C626   1.402       .  A
C625        H635   1.083       .  S
C626        H636   1.081       .  S
C637        C638   1.406       .  A
C637        C642   1.405       .  A
C638        C639   1.397       .  A
C638        H651   1.083       .  S
C639        C640   1.402       .  A
C639        H652   1.083       .  S
C640        C641   1.408       .  A
C640        C643   1.486       .  S
C641        C642   1.399       .  A
C641        H653   1.081       .  S
C642        H654   1.083       .  S
C643        C644   1.347       .  D
C643        H655   1.084       .  S
C644        C645   1.487       .  S
C644        H656   1.085       .  S
C645        C646   1.403       .  A
C645        C650   1.409       .  A
C646        C647   1.397       .  A
C646        H657   1.083       .  S
C647        C648   1.406       .  A
C647        H658   1.083       .  S
C648        C649   1.405       .  A
C649        C650   1.399       .  A
C649        H659   1.083       .  S
C650        H660   1.081       .  S
C661        C662   1.405       .  A
C661        C666   1.406       .  A
C662        C663   1.399       .  A
C662        H675   1.083       .  S
C663        C664   1.404       .  A
C663        H676   1.083       .  S
C664        C665   1.407       .  A
C664        C667   1.487       .  S
C665        C666   1.397       .  A
C665        H677   1.081       .  S
C666        H678   1.083       .  S
C667        C668   1.350       .  D
C667        H679   1.083       .  S
C668        C669   1.490       .  S
C668        H680   1.085       .  S
C669        C670   1.405       .  A
C669        C674   1.408       .  A
C670        C671   1.399       .  A
C670        H681   1.083       .  S
C671        C672   1.405       .  A
C671        H682   1.083       .  S
C672        C673   1.406       .  A
C673        C674   1.398       .  A
C673        H683   1.083       .  S
C674        H684   1.080       .  S
C685        C686   1.406       .  A
C685        C690   1.405       .  A
C686        C687   1.396       .  A
C686        H699   1.083       .  S
C687        C688   1.402       .  A
C687        H700   1.084       .  S
C688        C689   1.409       .  A
C688        C691   1.488       .  S
C689        C690   1.402       .  A
C689        H701   1.081       .  S
C690        H702   1.083       .  S
C691        C692   1.347       .  D
C691        H703   1.085       .  S
C692        C693   1.489       .  S
C692        H704   1.085       .  S
C693        C694   1.403       .  A
C693        C698   1.409       .  A
C694        C695   1.399       .  A
C694        H705   1.083       .  S
C695        C696   1.406       .  A
C695        H706   1.083       .  S
C696        C697   1.406       .  A
C697        C698   1.400       .  A
C697        H707   1.083       .  S
C698        H708   1.081       .  S
C709        C710   1.406       .  A
C709        C714   1.407       .  A
C710        C711   1.396       .  A
C710        H723   1.083       .  S
C711        C712   1.402       .  A
C711        H724   1.083       .  S
C712        C713   1.410       .  A
C712        C715   1.490       .  S
C713        C714   1.403       .  A
C713        H725   1.081       .  S
C714        H726   1.083       .  S
C715        C716   1.348       .  D
C715        H727   1.085       .  S
C716        C717   1.490       .  S
C716        H728   1.085       .  S
C717        C718   1.403       .  A
C717        C722   1.409       .  A
C718        C719   1.397       .  A
C718        H729   1.083       .  S
C719        C720   1.406       .  A
C719        H730   1.083       .  S
C720        C721   1.406       .  A
C721        C722   1.402       .  A
C721        H731   1.083       .  S
C722        H732   1.081       .  S
C733        C734   1.407       .  A
C733        C738   1.405       .  A
C734        C735   1.401       .  A
C734        H747   1.083       .  S
C735        C736   1.405       .  A
C735        H748   1.083       .  S
C736        C737   1.408       .  A
C736        C739   1.491       .  S
C737        C738   1.398       .  A
C737        H749   1.081       .  S
C738        H750   1.083       .  S
C739        C740   1.349       .  D
C739        H751   1.084       .  S
C740        C741   1.491       .  S
C740        H752   1.085       .  S
C741        C742   1.404       .  A
C741        C746   1.409       .  A
C742        C743   1.398   1_556  A
C742        H753   1.083       .  S
C743        C744   1.405       .  A
C743        H754   1.083       .  S
C744        C745   1.407       .  A
C745        C746   1.401   1_554  A
C745        H755   1.083       .  S
C746        H756   1.081       .  S
C757        C758   1.406       .  A
C757        C762   1.405       .  A
C758        C759   1.399       .  A
C758        H771   1.083       .  S
C759        C760   1.404       .  A
C759        H772   1.083       .  S
C760        C761   1.408       .  A
C760        C763   1.488       .  S
C761        C762   1.397       .  A
C761        H773   1.081       .  S
C762        H774   1.083       .  S
C763        C764   1.348       .  D
C763        H775   1.084       .  S
C764        C765   1.488       .  S
C764        H776   1.085       .  S
C765        C766   1.403       .  A
C765        C770   1.409       .  A
C766        C767   1.397       .  A
C766        H777   1.083       .  S
C767        C768   1.405       .  A
C767        H778   1.083       .  S
C768        C769   1.406       .  A
C769        C770   1.400       .  A
C769        H779   1.083       .  S
C770        H780   1.081       .  S
C781        C782   1.405       .  A
C781        C786   1.407       .  A
C782        C783   1.399       .  A
C782        H795   1.083       .  S
C783        C784   1.404       .  A
C783        H796   1.083       .  S
C784        C785   1.408       .  A
C784        C787   1.491       .  S
C785        C786   1.401       .  A
C785        H797   1.081       .  S
C786        H798   1.083       .  S
C787        C788   1.350       .  D
C787        H799   1.085       .  S
C788        C789   1.492       .  S
C788        H800   1.085       .  S
C789        C790   1.405       .  A
C789        C794   1.408       .  A
C790        C791   1.400       .  A
C790        H801   1.083       .  S
C791        C792   1.406       .  A
C791        H802   1.083       .  S
C792        C793   1.407       .  A
C793        C794   1.400       .  A
C793        H803   1.083       .  S
C794        H804   1.081       .  S
C805        C806   1.406       .  A
C805        C810   1.406       .  A
C806        C807   1.399   1_556  A
C806        H819   1.083       .  S
C807        C808   1.403       .  A
C807        H820   1.083       .  S
C808        C809   1.408       .  A
C808        C811   1.488       .  S
C809        C810   1.400   1_554  A
C809        H821   1.082       .  S
C810        H822   1.083       .  S
C811        C812   1.348       .  D
C811        H823   1.085       .  S
C812        C813   1.489       .  S
C812        H824   1.085       .  S
C813        C814   1.403       .  A
C813        C818   1.408       .  A
C814        C815   1.398       .  A
C814        H825   1.084       .  S
C815        C816   1.406       .  A
C815        H826   1.083       .  S
C816        C817   1.407       .  A
C817        C818   1.401       .  A
C817        H827   1.083       .  S
C818        H828   1.081       .  S
C829        C830   1.405       .  A
C829        C834   1.405       .  A
C830        C831   1.396       .  A
C830        H843   1.083       .  S
C831        C832   1.403       .  A
C831        H844   1.084       .  S
C832        C833   1.410       .  A
C832        C835   1.490       .  S
C833        C834   1.400       .  A
C833        H845   1.080       .  S
C834        H846   1.083       .  S
C835        C836   1.348   1_455  D
C835        H847   1.086   1_455  S
C836        C837   1.485       .  S
C836        H848   1.083   1_655  S
C837        C838   1.402       .  A
C837        C842   1.407       .  A
C838        C839   1.398       .  A
C838        H849   1.083       .  S
C839        C840   1.406       .  A
C839        H850   1.083       .  S
C840        C841   1.406       .  A
C841        C842   1.398       .  A
C841        H851   1.083       .  S
C842        H852   1.082       .  S
C853        C854   1.406       .  A
C853        C858   1.405       .  A
C854        C855   1.397       .  A
C854        H867   1.083       .  S
C855        C856   1.402       .  A
C855        H868   1.083       .  S
C856        C857   1.408       .  A
C856        C859   1.484       .  S
C857        C858   1.398       .  A
C857        H869   1.082       .  S
C858        H870   1.083       .  S
C859        C860   1.347       .  D
C859        H871   1.084       .  S
C860        C861   1.486       .  S
C860        H872   1.086       .  S
C861        C862   1.402       .  A
C861        C866   1.409       .  A
C862        C863   1.395       .  A
C862        H873   1.084       .  S
C863        C864   1.405       .  A
C863        H874   1.083       .  S
C864        C865   1.405       .  A
C865        C866   1.400       .  A
C865        H875   1.083       .  S
C866        H876   1.081       .  S
C877        C878   1.406       .  A
C877        C882   1.406   1_565  A
C878        C879   1.396       .  A
C878        H891   1.083       .  S
C879        C880   1.402       .  A
C879        H892   1.084       .  S
C880        C881   1.407   1_565  A
C880        C883   1.483   1_565  S
C881        C882   1.401       .  A
C881        H893   1.082       .  S
C882        H894   1.083       .  S
C883        C884   1.345       .  D
C883        H895   1.087   1_545  S
C884        C885   1.482       .  S
C884        H896   1.086       .  S
C885        C886   1.402   1_545  A
C885        C890   1.406       .  A
C886        C887   1.399       .  A
C886        H897   1.083       .  S
C887        C888   1.406   1_565  A
C887        H898   1.083       .  S
C888        C889   1.404       .  A
C889        C890   1.399       .  A
C889        H899   1.083       .  S
C890        H900   1.083       .  S
C901        C902   1.405       .  A
C901        C906   1.405       .  A
C902        C903   1.398       .  A
C902        H915   1.083   1_545  S
C903        C904   1.401       .  A
C903        H916   1.083   1_545  S
C904        C905   1.406       .  A
C904        C907   1.481       .  S
C905        C906   1.400       .  A
C905        H917   1.083       .  S
C906        H918   1.083       .  S
C907        C908   1.344       .  D
C907        H919   1.086       .  S
C908        C909   1.483       .  S
C908        H920   1.087   1_545  S
C909        C910   1.401   1_545  A
C909        C914   1.407       .  A
C910        C911   1.396       .  A
C910        H921   1.083       .  S
C911        C912   1.406       .  A
C911        H922   1.083       .  S
C912        C913   1.407   1_565  A
C913        C914   1.401       .  A
C913        H923   1.083       .  S
C914        H924   1.082       .  S
C925        C926   1.405       .  A
C925        C930   1.405       .  A
C926        C927   1.398       .  A
C926        H939   1.083       .  S
C927        C928   1.405       .  A
C927        H940   1.083       .  S
C928        C929   1.409       .  A
C928        C931   1.490       .  S
C929        C930   1.398       .  A
C929        H941   1.079       .  S
C930        H942   1.083       .  S
C931        C932   1.349       .  D
C931        H943   1.086       .  S
C932        C933   1.485       .  S
C932        H944   1.083       .  S
C933        C934   1.403       .  A
C933        C938   1.407       .  A
C934        C935   1.398       .  A
C934        H945   1.083       .  S
C935        C936   1.406       .  A
C935        H946   1.083       .  S
C936        C937   1.406       .  A
C937        C938   1.398       .  A
C937        H947   1.083       .  S
C938        H948   1.082       .  S
C949        C950   1.407       .  A
C949        C954   1.406       .  A
C950        C951   1.398       .  A
C950        H963   1.083       .  S
C951        C952   1.403       .  A
C951        H964   1.083       .  S
C952        C953   1.408       .  A
C952        C955   1.487       .  S
C953        C954   1.400       .  A
C953        H965   1.082       .  S
C954        H966   1.083       .  S
C955        C956   1.346       .  D
C955        H967   1.086       .  S
C956        C957   1.487       .  S
C956        H968   1.086       .  S
C957        C958   1.402       .  A
C957        C962   1.408       .  A
C958        C959   1.398       .  A
C958        H969   1.083       .  S
C959        C960   1.406       .  A
C959        H970   1.083       .  S
C960        C961   1.406       .  A
C961        C962   1.401       .  A
C961        H971   1.083       .  S
C962        H972   1.082       .  S
C973        C974   1.406       .  A
C973        C978   1.405       .  A
C974        C975   1.397   1_556  A
C974        H987   1.083       .  S
C975        C976   1.402       .  A
C975        H988   1.083       .  S
C976        C977   1.408       .  A
C976        C979   1.486       .  S
C977        C978   1.399   1_554  A
C977        H989   1.082       .  S
C978        H990   1.083       .  S
C979        C980   1.346       .  D
C979        H991   1.085       .  S
C980        C981   1.486       .  S
C980        H992   1.086       .  S
C981        C982   1.402       .  A
C981        C986   1.408       .  A
C982        C983   1.396       .  A
C982        H993   1.084       .  S
C983        C984   1.406       .  A
C983        H994   1.083       .  S
C984        C985   1.406       .  A
C985        C986   1.401       .  A
C985        H995   1.083       .  S
C986        H996   1.082       .  S
C997        C998   1.406       .  A
C997       C1002   1.406       .  A
C998        C999   1.396       .  A
C998       H1011   1.083       .  S
C999       C1000   1.402       .  A
C999       H1012   1.083       .  S
C1000      C1001   1.409       .  A
C1000      C1003   1.488       .  S
C1001      C1002   1.403       .  A
C1001      H1013   1.081       .  S
C1002      H1014   1.083       .  S
C1003      C1004   1.348       .  D
C1003      H1015   1.085       .  S
C1004      C1005   1.489       .  S
C1004      H1016   1.085       .  S
C1005      C1006   1.403       .  A
C1005      C1010   1.409       .  A
C1006      C1007   1.398       .  A
C1006      H1017   1.083       .  S
C1007      C1008   1.406       .  A
C1007      H1018   1.083       .  S
C1008      C1009   1.405       .  A
C1009      C1010   1.400       .  A
C1009      H1019   1.083       .  S
C1010      H1020   1.081       .  S
C1021      C1022   1.406       .  A
C1021      C1026   1.406       .  A
C1022      C1023   1.396       .  A
C1022      H1035   1.083       .  S
C1023      C1024   1.402       .  A
C1023      H1036   1.083       .  S
C1024      C1025   1.409       .  A
C1024      C1027   1.488       .  S
C1025      C1026   1.402       .  A
C1025      H1037   1.082       .  S
C1026      H1038   1.083       .  S
C1027      C1028   1.347       .  D
C1027      H1039   1.086       .  S
C1028      C1029   1.487       .  S
C1028      H1040   1.085       .  S
C1029      C1030   1.402       .  A
C1029      C1034   1.409       .  A
C1030      C1031   1.396   1_556  A
C1030      H1041   1.084       .  S
C1031      C1032   1.406       .  A
C1031      H1042   1.083       .  S
C1032      C1033   1.406       .  A
C1033      C1034   1.402   1_554  A
C1033      H1043   1.083       .  S
C1034      H1044   1.082       .  S
C1045      C1046   1.406       .  A
C1045      C1050   1.407       .  A
C1046      C1047   1.397       .  A
C1046      H1059   1.083       .  S
C1047      C1048   1.403       .  A
C1047      H1060   1.083       .  S
C1048      C1049   1.410       .  A
C1048      C1051   1.491       .  S
C1049      C1050   1.403       .  A
C1049      H1061   1.081       .  S
C1050      H1062   1.083       .  S
C1051      C1052   1.347       .  D
C1051      H1063   1.085       .  S
C1052      C1053   1.491       .  S
C1052      H1064   1.085       .  S
C1053      C1054   1.403       .  A
C1053      C1058   1.409       .  A
C1054      C1055   1.399       .  A
C1054      H1065   1.083       .  S
C1055      C1056   1.407       .  A
C1055      H1066   1.083       .  S
C1056      C1057   1.406       .  A
C1057      C1058   1.401       .  A
C1057      H1067   1.083       .  S
C1058      H1068   1.081       .  S
C1069      C1070   1.406       .  A
C1069      C1074   1.405       .  A
C1070      C1071   1.397       .  A
C1070      H1083   1.083       .  S
C1071      C1072   1.403       .  A
C1071      H1084   1.083       .  S
C1072      C1073   1.408       .  A
C1072      C1075   1.486       .  S
C1073      C1074   1.398       .  A
C1073      H1085   1.081       .  S
C1074      H1086   1.083       .  S
C1075      C1076   1.347       .  D
C1075      H1087   1.085       .  S
C1076      C1077   1.484       .  S
C1076      H1088   1.085       .  S
C1077      C1078   1.402       .  A
C1077      C1082   1.408       .  A
C1078      C1079   1.395       .  A
C1078      H1089   1.084       .  S
C1079      C1080   1.405       .  A
C1079      H1090   1.083       .  S
C1080      C1081   1.406       .  A
C1081      C1082   1.399       .  A
C1081      H1091   1.083       .  S
C1082      H1092   1.081       .  S
C1093      C1094   1.405       .  A
C1093      C1098   1.406       .  A
C1094      C1095   1.398       .  A
C1094      H1107   1.083       .  S
C1095      C1096   1.403       .  A
C1095      H1108   1.083       .  S
C1096      C1097   1.408       .  A
C1096      C1099   1.487       .  S
C1097      C1098   1.399       .  A
C1097      H1109   1.081       .  S
C1098      H1110   1.083       .  S
C1099      C1100   1.348   1_655  D
C1099      H1111   1.084   1_655  S
C1100      C1101   1.488       .  S
C1100      H1112   1.085   1_455  S
C1101      C1102   1.403       .  A
C1101      C1106   1.409       .  A
C1102      C1103   1.397       .  A
C1102      H1113   1.083       .  S
C1103      C1104   1.406       .  A
C1103      H1114   1.083       .  S
C1104      C1105   1.404       .  A
C1105      C1106   1.399       .  A
C1105      H1115   1.083       .  S
C1106      H1116   1.081       .  S
