geometry optimzed in LAMMPS
_audit_creation_date              2020-12-01 
_audit_creation_method            'lammps2cif' 
_symmetry_space_group_name_H-M    'P1' 
_symmetry_Int_Tables_number       1 
_symmetry_cell_setting            triclinic 
loop_ 
_symmetry_equiv_pos_as_xyz 
  x,y,z 
_cell_length_a                    80.46309821 
_cell_length_b                    81.14948250077553 
_cell_length_c                    30.116212295576197 
_cell_angle_alpha                 90.21766783540686 
_cell_angle_beta                  89.86199220839289 
_cell_angle_gamma                 89.84777640457584 
loop_ 
_atom_site_label 
_atom_site_type_symbol 
_atom_site_fract_x 
_atom_site_fract_y 
_atom_site_fract_z 
_atom_site_charge 
O1          O  0.84390902  0.72652528  0.35341018    -0.56900
C2          C  0.84401280  0.71283005  0.20974641     0.75700
O3          O  0.83967670  0.67565705  0.31624254    -0.58000
C4          C  0.83485154  0.72193406  0.38571246     0.75700
C5          C  0.79848303  0.70886725  0.27778482     0.78100
Cd6        Cd  0.83317072  0.70535434  0.29970666     1.37500
O7          O  0.84615617  0.72313166  0.24120488    -0.56900
O8          O  0.80926333  0.71977951  0.26975228    -0.55700
C9          C  0.85524314  0.67812546  0.31927759     0.78100
O10         O  0.80353123  0.69583189  0.29689390    -0.58100
O11         O  0.83769162  0.69914518  0.22084137    -0.56500
O12         O  0.82455837  0.71061862  0.37714270    -0.56500
O13         O  0.86005221  0.69273520  0.31274973    -0.55700
O14         O  0.63567540  0.74612525  0.12727259    -0.56900
C15         C  0.63921889  0.75441914  0.27223315     0.75700
O16         O  0.68101204  0.76742979  0.19926003    -0.58000
C17         C  0.64395128  0.75187711  0.09481268     0.75700
C18         C  0.63496153  0.79526575  0.17155796     0.78100
Cd19       Cd  0.65058865  0.76338560  0.18426185     1.37500
O20         O  0.63443743  0.74623724  0.23849552    -0.56900
O21         O  0.62721052  0.78247346  0.18349354    -0.55700
C22         C  0.68422011  0.75209816  0.20158954     0.78100
O23         O  0.65060208  0.79375027  0.16693370    -0.58100
O24         O  0.64821741  0.76685445  0.26417119    -0.56500
O25         O  0.65545565  0.76177812  0.10487884    -0.56500
O26         O  0.67214769  0.74252460  0.19398836    -0.55700
O27         O  0.85198624  0.74260467  0.85400008    -0.56900
C28         C  0.84356295  0.75393679  0.70947774     0.75700
O29         O  0.80377867  0.76453048  0.79222398    -0.58000
C30         C  0.84131230  0.74302059  0.88520520     0.75700
C31         C  0.84826012  0.79138788  0.82519857     0.78100
Cd32       Cd  0.83425635  0.75959672  0.80160806     1.37500
O33         O  0.84830760  0.74403571  0.73966923    -0.56900
O34         O  0.85620185  0.78058685  0.80332649    -0.55700
C35         C  0.80055381  0.74966280  0.78177651     0.78100
O36         O  0.83321273  0.78806910  0.83416265    -0.58100
O37         O  0.83574674  0.76660122  0.72275449    -0.56500
O38         O  0.82778394  0.75025020  0.87656514    -0.56500
O39         O  0.81271000  0.73974855  0.78261673    -0.55700
O40         O  0.63677168  0.72953634  0.62794400    -0.56900
C41         C  0.63943772  0.72018089  0.77177399     0.75700
O42         O  0.64295055  0.67986965  0.67096721    -0.58000
C43         C  0.64176396  0.72125843  0.59448943     0.75700
C44         C  0.68381519  0.71571978  0.69430497     0.78100
Cd45       Cd  0.64848998  0.70982527  0.68338710     1.37500
O46         O  0.63565706  0.72917869  0.73875540    -0.56900
O47         O  0.67360485  0.72687217  0.68338815    -0.55700
C48         C  0.62731265  0.68132524  0.67611934     0.78100
O49         O  0.67791333  0.70126990  0.69808020    -0.58100
O50         O  0.64686655  0.70680878  0.76277837    -0.56500
O51         O  0.64996603  0.70831056  0.60297695    -0.56500
O52         O  0.62200668  0.69555769  0.68618538    -0.55700
O53         O  0.50104880  0.88834701  0.12885847    -0.56900
C54         C  0.51284309  0.89056578  0.98180922     0.75700
O55         O  0.52861835  0.92993021  0.06466991    -0.58000
C56         C  0.50781556  0.89568676  0.16158396     0.75700
C57         C  0.55144519  0.88096156  0.08502611     0.78100
Cd58       Cd  0.52130318  0.89996516  0.07251110     1.37500
O59         O  0.50370053  0.88621005  0.01426220    -0.56900
O60         O  0.53735985  0.87442452  0.07879431    -0.55700
C61         C  0.51364348  0.93448517  0.05876203     0.78100
O62         O  0.55185199  0.89662391  0.08497208    -0.58100
O63         O  0.52587740  0.89842069  0.99203005    -0.56500
O64         O  0.52010327  0.90468192  0.15203381    -0.56500
O65         O  0.50277356  0.92329738  0.06158026    -0.55700
O66         O  0.49303595  0.09882564  0.99935002    -0.56900
C67         C  0.48689986  0.08798785  0.85349403     0.75700
O68         O  0.46807686  0.05544808  0.96307501    -0.58000
C69         C  0.48313163  0.09594557  0.03144999     0.75700
C70         C  0.44460258  0.10169464  0.92750184     0.78100
Cd71       Cd  0.47511915  0.08426983  0.94356675     1.37500
O72         O  0.49361807  0.09638753  0.88440412    -0.56900
O73         O  0.45806842  0.10882484  0.93752116    -0.55700
C74         C  0.48304428  0.05040025  0.96350176     0.78100
O75         O  0.44493322  0.08603501  0.92640185    -0.58100
O76         O  0.47554978  0.07817669  0.86525814    -0.56500
O77         O  0.46986468  0.08842510  0.02180199    -0.56500
O78         O  0.49401740  0.06082648  0.95280094    -0.55700
O79         O  0.48094125  0.89006886  0.51606834    -0.56900
C80         C  0.47850322  0.89746605  0.65987669     0.75700
O81         O  0.45507181  0.93230662  0.56070811    -0.58000
C82         C  0.47116561  0.89297738  0.48395460     0.75700
C83         C  0.43321762  0.88452400  0.59691459     0.78100
Cd84       Cd  0.46277274  0.90283352  0.57413378     1.37500
O85         O  0.48294237  0.88923849  0.62582266    -0.56900
O86         O  0.44742801  0.87810802  0.59151057    -0.55700
C87         C  0.47008512  0.93702404  0.55739512     0.78100
O88         O  0.43207434  0.89988086  0.58917669    -0.58100
O89         O  0.46758541  0.90847601  0.65328431    -0.56500
O90         O  0.45723173  0.89913831  0.49449835    -0.56500
O91         O  0.48108651  0.92618040  0.56444361    -0.55700
O92         O  0.51089162  0.10059752  0.38648864    -0.56900
C93         C  0.51817826  0.08964480  0.52815335     0.75700
O94         O  0.52829949  0.05041324  0.44534710    -0.58000
C95         C  0.51073772  0.09049542  0.35419133     0.75700
C96         C  0.55792165  0.09320076  0.41884187     0.78100
Cd97       Cd  0.52507689  0.08080507  0.43754368     1.37500
O98         O  0.50864762  0.09481718  0.49751158    -0.56900
O99         O  0.54685345  0.10144925  0.43896563    -0.55700
C100        C  0.51304875  0.04798328  0.45441945     0.78100
O101        O  0.55438995  0.07830695  0.40987654    -0.58100
O102        O  0.53111091  0.08204146  0.51555579    -0.56500
O103        O  0.51608198  0.07613826  0.36196734    -0.56500
O104        O  0.50364399  0.06050381  0.45307241    -0.55700
O105        O  0.63186684  0.24862671  0.73651217    -0.56900
C106        C  0.63934518  0.25310832  0.88437600     0.75700
O107        O  0.67593320  0.27085799  0.78606844    -0.58000
C108        C  0.63567715  0.25845884  0.70525055     0.75700
C109        C  0.62753328  0.29563546  0.80818322     0.78100
Cd110      Cd  0.64547661  0.26545743  0.79541270     1.37500
O111        O  0.63127955  0.24725460  0.85161541    -0.56900
O112        O  0.62058476  0.28193628  0.80042973    -0.55700
C113        C  0.67942400  0.25576942  0.77895320     0.78100
O114        O  0.64334632  0.29558579  0.80843321    -0.58100
O115        O  0.65012077  0.26388050  0.87498654    -0.56500
O116        O  0.64315076  0.27150804  0.71675225    -0.56500
O117        O  0.66742784  0.24575159  0.78177120    -0.55700
O118        O  0.84098515  0.22531259  0.62112842    -0.56900
C119        C  0.83761261  0.21566218  0.76549681     0.75700
O120        O  0.79829663  0.19858922  0.69184619    -0.58000
C121        C  0.83469922  0.21854689  0.58689801     0.75700
C122        C  0.84598352  0.17514433  0.66223289     0.78100
Cd123      Cd  0.82800748  0.20563560  0.67566246     1.37500
O124        O  0.84018101  0.22500924  0.73238781    -0.56900
O125        O  0.85292317  0.18857507  0.67290298    -0.55700
C126        C  0.79309798  0.21327237  0.68692807     0.78100
O127        O  0.83024103  0.17545941  0.65882912    -0.58100
O128        O  0.83165389  0.20162082  0.75655643    -0.56500
O129        O  0.82553570  0.20619998  0.59433949    -0.56500
O130        O  0.80382082  0.22373530  0.67513187    -0.55700
O131        O  0.84247844  0.24486851  0.12268180    -0.56900
C132        C  0.83796189  0.25692353  0.26696446     0.75700
O133        O  0.83314951  0.29561666  0.16853693    -0.58000
C134        C  0.83409131  0.24976190  0.08944515     0.75700
C135        C  0.79488654  0.25831576  0.18764820     0.78100
Cd136      Cd  0.82962227  0.26507118  0.17593762     1.37500
O137        O  0.84336642  0.24809295  0.23501036    -0.56900
O138        O  0.80571363  0.24704897  0.18372701    -0.55700
C139        C  0.84847330  0.29459217  0.15867334     0.78100
O140        O  0.79998905  0.27307135  0.18402863    -0.58100
O141        O  0.82978727  0.26956458  0.25593436    -0.56500
O142        O  0.82364317  0.26115067  0.09703232    -0.56500
O143        O  0.85477791  0.28030172  0.15797559    -0.55700
O144        O  0.63069304  0.23161609  0.34982125    -0.56900
C145        C  0.63100775  0.22190057  0.20617675     0.75700
O146        O  0.67473558  0.20760503  0.27930110    -0.58000
C147        C  0.63950909  0.22630063  0.38169919     0.75700
C148        C  0.63105363  0.18141815  0.30669492     0.78100
Cd149      Cd  0.64471360  0.21363284  0.29201523     1.37500
O150        O  0.62963942  0.23179204  0.23883239    -0.56900
O151        O  0.62209045  0.19409415  0.30101568    -0.55700
C152        C  0.67865009  0.22241137  0.27098882     0.78100
O153        O  0.64663715  0.18352908  0.30369297    -0.58100
O154        O  0.63765049  0.20810102  0.21437588    -0.56500
O155        O  0.65051903  0.21588322  0.37111701    -0.56500
O156        O  0.66698706  0.23286583  0.27329199    -0.55700
O157        O  0.12829118  0.73850405  0.34090743    -0.56900
C158        C  0.13170405  0.75103508  0.19713979     0.75700
O159        O  0.13851170  0.78860891  0.30353362    -0.58000
C160        C  0.13795319  0.74223102  0.37272975     0.75700
C161        C  0.17619387  0.75261647  0.26922462     0.78100
Cd162      Cd  0.14159088  0.75834967  0.28763073     1.37500
O163        O  0.12889679  0.74067496  0.22786385    -0.56900
O164        O  0.16509493  0.74176736  0.26411751    -0.55700
C165        C  0.12286914  0.78792710  0.30927041     0.78100
O166        O  0.17149156  0.76647872  0.28462233    -0.58100
O167        O  0.13802871  0.76457124  0.20934757    -0.56500
O168        O  0.14924838  0.75250420  0.36387057    -0.56500
O169        O  0.11635866  0.77392682  0.30326024    -0.55700
O170        O  0.34173637  0.72877932  0.12786728    -0.37700
C171        C  0.33887590  0.71899704  0.27199030     0.75700
O172        O  0.29879943  0.70367527  0.19488766    -0.58000
C173        C  0.33334185  0.72330847  0.09527757     0.75700
C174        C  0.34567772  0.67945568  0.16715175     0.78100
Cd175      Cd  0.32848447  0.71020587  0.18324644     1.37500
O176        O  0.34207236  0.72850935  0.23961618    -0.56900
O177        O  0.35291741  0.69328552  0.16867823    -0.55700
C178        C  0.29415472  0.71860721  0.19831466     0.78100
O179        O  0.33009301  0.67957757  0.17414520    -0.58100
O180        O  0.33203764  0.70546027  0.26219082    -0.56500
O181        O  0.32264630  0.71240156  0.10434665    -0.56500
O182        O  0.30532012  0.72938271  0.19297023    -0.55700
O183        O  0.13197671  0.72891081  0.83769731    -0.56900
C184        C  0.13485705  0.71428850  0.69574510     0.75700
O185        O  0.17812974  0.70740908  0.77553295    -0.58000
C186        C  0.14111650  0.72482349  0.87033767     0.75700
C187        C  0.13420887  0.67992735  0.81243423     0.78100
Cd188      Cd  0.14765756  0.71075926  0.78454970     1.37500
O189        O  0.13149707  0.72496259  0.72548905    -0.56900
O190        O  0.12603102  0.69325745  0.81202134    -0.55700
C191        C  0.18084994  0.72272198  0.77064117     0.78100
O192        O  0.14904800  0.68043317  0.79787523    -0.58100
O193        O  0.14328787  0.70197880  0.70818144    -0.56500
O194        O  0.15329802  0.71546024  0.86142984    -0.56500
O195        O  0.16830622  0.73212297  0.77307351    -0.55700
O196        O  0.34407692  0.74822434  0.74151105    -0.56900
C197        C  0.33437202  0.75394855  0.59471866     0.75700
O198        O  0.30227353  0.77535820  0.69895289    -0.58000
C199        C  0.34057511  0.75796493  0.77345269     0.75700
C200        C  0.34978546  0.79662666  0.66566433     0.78100
Cd201      Cd  0.33142110  0.76703808  0.68377401     1.37500
O202        O  0.34302492  0.74785408  0.62604646    -0.56900
O203        O  0.35647258  0.78249649  0.66755387    -0.55700
C204        C  0.29678390  0.76070437  0.69703962     0.78100
O205        O  0.33434541  0.79738359  0.67437941    -0.58100
O206        O  0.32459640  0.76553478  0.60552632    -0.56500
O207        O  0.33436106  0.77165432  0.76247745    -0.56500
O208        O  0.30722580  0.74948439  0.68805415    -0.55700
O209        O  0.00039377  0.09382464  0.99914130    -0.56900
C210        C  0.00713831  0.08559881  0.14074538     0.75700
O211        O  0.02333231  0.04820699  0.03603470    -0.58000
C212        C  0.00988052  0.09127714  0.96600654     0.75700
C213        C  0.05081418  0.09248443  0.06430956     0.78100
Cd214      Cd  0.01844193  0.07802633  0.05191791     1.37500
O215        O  0.99997003  0.09208754  0.10753862    -0.56900
O216        O  0.03777025  0.10076579  0.05688890    -0.55700
C217        C  0.00810192  0.04418018  0.03748369     0.78100
O218        O  0.04916838  0.07690954  0.06485356    -0.58100
O219        O  0.01889191  0.07571340  0.13207970    -0.56500
O220        O  0.02300737  0.08315097  0.97344017    -0.56500
O221        O  0.99801184  0.05566471  0.04675340    -0.55700
O222        O  0.97647467  0.88216647  0.00078008    -0.56900
C223        C  0.97324757  0.89001828  0.85444275     0.75700
O224        O  0.92882052  0.89292239  0.92819513    -0.58000
C225        C  0.96643686  0.88554792  0.03225769     0.75700
C226        C  0.96873607  0.92933391  0.95749902     0.78100
Cd227      Cd  0.95941303  0.89561902  0.94201582     1.37500
O228        O  0.97938292  0.88261707  0.88782016    -0.56900
O229        O  0.97897353  0.91749552  0.95579614    -0.55700
C230        C  0.92943243  0.87726678  0.92580730     0.78100
O231        O  0.95360282  0.92585020  0.94970538    -0.58100
O232        O  0.96163284  0.90011972  0.86270432    -0.56500
O233        O  0.95300196  0.89255449  0.02107101    -0.56500
O234        O  0.94356570  0.87077571  0.93208445    -0.55700
O235        O  0.99547313  0.88044511  0.38810150    -0.56900
C236        C  0.00887350  0.88540015  0.53261685     0.75700
O237        O  0.04515121  0.89269205  0.41738947    -0.58000
C238        C  0.99886900  0.88988100  0.35568699     0.75700
C239        C  0.00523659  0.92798339  0.45871912     0.78100
Cd240      Cd  0.01508411  0.89439676  0.44090183     1.37500
O241        O  0.99976402  0.87976043  0.50157630    -0.56900
O242        O  0.99504215  0.91613527  0.45752452    -0.55700
C243        C  0.04572088  0.87705644  0.41975661     0.78100
O244        O  0.02032338  0.92436255  0.45005347    -0.58100
O245        O  0.02104436  0.89418827  0.52042544    -0.56500
O246        O  0.00914261  0.90127774  0.36377530    -0.56500
O247        O  0.03269295  0.86999222  0.43347456    -0.55700
O248        O  0.98577700  0.09541175  0.60968195    -0.56900
C249        C  0.97647255  0.08791945  0.46695197     0.75700
O250        O  0.95840084  0.05079448  0.54378337    -0.58000
C251        C  0.98216927  0.08652306  0.64297652     0.75700
C252        C  0.93496054  0.09565405  0.57198254     0.78100
Cd253      Cd  0.96698079  0.07971640  0.55729472     1.37500
O254        O  0.98490873  0.09348518  0.49933999    -0.56900
O255        O  0.94751342  0.10319860  0.55703801    -0.55700
C256        C  0.97305271  0.04496768  0.54347907     0.78100
O257        O  0.93698446  0.08043375  0.57969126    -0.58100
O258        O  0.96379014  0.07959639  0.47729047    -0.56500
O259        O  0.97249063  0.07459928  0.63537001    -0.56500
O260        O  0.98467291  0.05504146  0.55148699    -0.55700
O261        O  0.47784300  0.59306062  0.11824022    -0.56900
C262        C  0.46728114  0.58982230  0.97614279     0.75700
O263        O  0.45379450  0.54781087  0.05077569    -0.58000
C264        C  0.47453230  0.58361452  0.15066513     0.75700
C265        C  0.42870621  0.59263651  0.09062878     0.78100
Cd266      Cd  0.45980077  0.57771271  0.06459978     1.37500
O267        O  0.47801231  0.59075454  0.00687968    -0.56900
O268        O  0.44249466  0.60007066  0.09153358    -0.55700
C269        C  0.46899577  0.54369826  0.04720405     0.78100
O270        O  0.42880669  0.57800892  0.07536523    -0.58100
O271        O  0.45305359  0.58482005  0.98777772    -0.56500
O272        O  0.46516677  0.57148863  0.14224953    -0.56500
O273        O  0.47940878  0.55511584  0.05354542    -0.55700
O274        O  0.49601394  0.38340716  0.98083794    -0.56900
C275        C  0.49956836  0.39134542  0.83603155     0.75700
O276        O  0.52145897  0.42645717  0.93360105    -0.58000
C277        C  0.50574965  0.38679509  0.01284857     0.75700
C278        C  0.54542798  0.38064301  0.90914685     0.78100
Cd279      Cd  0.51400464  0.39689834  0.92349649     1.37500
O280        O  0.49591864  0.38175226  0.86785617    -0.56900
O281        O  0.53251402  0.37336280  0.92274242    -0.55700
C282        C  0.50696671  0.43052529  0.94649948     0.78100
O283        O  0.54414402  0.39605222  0.90284824    -0.58100
O284        O  0.50867860  0.40342321  0.84621033    -0.56500
O285        O  0.51928959  0.39372355  0.00247761    -0.56500
O286        O  0.49596140  0.41942514  0.94543113    -0.55700
O287        O  0.49178371  0.59462602  0.50386743    -0.56900
C288        C  0.49246020  0.58482198  0.64811585     0.75700
O289        O  0.51696024  0.55219860  0.55443857    -0.58000
C290        C  0.50295135  0.59314688  0.47409869     0.75700
C291        C  0.53660811  0.60215749  0.58788362     0.78100
Cd292      Cd  0.50877273  0.58191603  0.56292628     1.37500
O293        O  0.48800079  0.59395646  0.61604996    -0.56900
O294        O  0.52224147  0.60778342  0.58008288    -0.55700
C295        C  0.50341704  0.54819947  0.53549710     0.78100
O296        O  0.53850837  0.58668988  0.58250409    -0.58100
O297        O  0.50310419  0.57380032  0.63894469    -0.56500
O298        O  0.51696580  0.58786103  0.48702775    -0.56500
O299        O  0.49260933  0.55945041  0.53158934    -0.55700
O300        O  0.48161255  0.38457880  0.37065149    -0.56900
C301        C  0.46762432  0.38786912  0.51387959     0.75700
O302        O  0.45486394  0.42843644  0.43550584    -0.58000
C303        C  0.47793454  0.39381483  0.33806769     0.75700
C304        C  0.43135091  0.38184000  0.40344241     0.78100
Cd305      Cd  0.46188207  0.39883716  0.42346972     1.37500
O306        O  0.47771672  0.38404451  0.48284809    -0.56900
O307        O  0.44438906  0.37469958  0.41680982    -0.55700
C308        C  0.46983350  0.43289958  0.44145585     0.78100
O309        O  0.43212484  0.39739325  0.39927582    -0.58100
O310        O  0.45506908  0.39623442  0.50235404    -0.56500
O311        O  0.46758851  0.40521201  0.34593094    -0.56500
O312        O  0.48070530  0.42163342  0.43823597    -0.55700
O313        O  0.34389212  0.22740849  0.74984346    -0.56900
C314        C  0.33757277  0.21998719  0.89507374     0.75700
O315        O  0.30472655  0.19680077  0.78823872    -0.58000
C316        C  0.34262293  0.21764893  0.71684691     0.75700
C317        C  0.35488530  0.17920600  0.82265616     0.78100
Cd318      Cd  0.33332985  0.20704757  0.80586185     1.37500
O319        O  0.34532168  0.22641657  0.86259240    -0.56900
O320        O  0.36023242  0.19347719  0.81373008    -0.55700
C321        C  0.29792808  0.21092873  0.79129456     0.78100
O322        O  0.33920004  0.17737615  0.82133645    -0.58100
O323        O  0.32774334  0.20836344  0.88550363    -0.56500
O324        O  0.33791144  0.20317763  0.72586176    -0.56500
O325        O  0.30726555  0.22262842  0.80347093    -0.55700
O326        O  0.13594511  0.24219639  0.62070074    -0.56900
C327        C  0.14072435  0.25047347  0.76810580     0.75700
O328        O  0.18053315  0.26447659  0.68778055    -0.58000
C329        C  0.14436678  0.24802449  0.58857779     0.75700
C330        C  0.13294979  0.29094912  0.66800093     0.78100
Cd331      Cd  0.15003253  0.25980835  0.67848898     1.37500
O332        O  0.13658530  0.24154390  0.73509497    -0.56900
O333        O  0.12556688  0.27755588  0.67649126    -0.55700
C334        C  0.18397673  0.24923699  0.69183899     0.78100
O335        O  0.14872805  0.29029024  0.66580819    -0.58100
O336        O  0.14810413  0.26382256  0.75904769    -0.56500
O337        O  0.15507478  0.25875534  0.59893915    -0.56500
O338        O  0.17191108  0.23938288  0.68762039    -0.55700
O339        O  0.14129318  0.21867630  0.23361817    -0.56900
C340        C  0.15020986  0.21444464  0.08873079     0.75700
O341        O  0.18586323  0.19576343  0.19441606    -0.58000
C342        C  0.14613640  0.21029774  0.26685315     0.75700
C343        C  0.13965258  0.16956780  0.16222243     0.78100
Cd344      Cd  0.15597299  0.20097892  0.17705427     1.37500
O345        O  0.14151095  0.21934223  0.12162618    -0.56900
O346        O  0.13209058  0.18240039  0.17531752    -0.55700
C347        C  0.19015746  0.21075727  0.19037016     0.78100
O348        O  0.15530423  0.17082388  0.15768813    -0.58100
O349        O  0.16112265  0.20366901  0.09731176    -0.56500
O350        O  0.15462247  0.19756700  0.25781479    -0.56500
O351        O  0.17883790  0.22072347  0.17901544    -0.55700
O352        O  0.35107904  0.24604593  0.36213818    -0.56900
C353        C  0.34855650  0.25251085  0.21697612     0.75700
O354        O  0.30723205  0.26789700  0.28503144    -0.58000
C355        C  0.34241076  0.25211524  0.39358126     0.75700
C356        C  0.35237707  0.29469421  0.31030370     0.78100
Cd357      Cd  0.33716323  0.26288524  0.30299455     1.37500
O358        O  0.35168166  0.24363598  0.25071543    -0.56900
O359        O  0.36060518  0.28169217  0.30219807    -0.55700
C360        C  0.30389947  0.25264724  0.28135335     0.78100
O361        O  0.33672816  0.29312904  0.31403528    -0.58100
O362        O  0.34151476  0.26620834  0.22430312    -0.56500
O363        O  0.33157940  0.26263889  0.38243153    -0.56500
O364        O  0.31551035  0.24278801  0.29104178    -0.55700
O365        O  0.99772507  0.59230538  0.49055134    -0.56900
C366        C  0.98952909  0.58670950  0.34924616     0.75700
O367        O  0.96790072  0.55282480  0.45548002    -0.58000
C368        C  0.98811623  0.59263830  0.52402930     0.75700
C369        C  0.94555749  0.59978150  0.42214995     0.78100
Cd370      Cd  0.97626262  0.58193526  0.43792368     1.37500
O371        O  0.99487917  0.59519437  0.38169824    -0.56900
O372        O  0.95949998  0.60671007  0.42768741    -0.55700
C373        C  0.98278932  0.54764735  0.45826749     0.78100
O374        O  0.94548112  0.58418062  0.42589363    -0.58100
O375        O  0.97879403  0.57589501  0.35872248    -0.56500
O376        O  0.97291376  0.58982543  0.51655770    -0.56500
O377        O  0.99397902  0.55798656  0.44896746    -0.55700
O378        O  0.00329590  0.38465602  0.51533274    -0.56900
C379        C  0.00788907  0.38997210  0.65792976     0.75700
O380        O  0.05157024  0.39448731  0.59075628    -0.58000
C381        C  0.01191921  0.38939696  0.48233097     0.75700
C382        C  0.01684649  0.43377006  0.56202325     0.78100
Cd383      Cd  0.02169467  0.39842880  0.57171261     1.37500
O384        O  0.99888625  0.38913981  0.62334396    -0.56900
O385        O  0.00591503  0.42445389  0.57859526    -0.55700
C386        C  0.05166409  0.37917312  0.58165531     0.78100
O387        O  0.03073990  0.42708247  0.55318338    -0.58100
O388        O  0.02272660  0.39462496  0.65222467    -0.56500
O389        O  0.02481933  0.39757494  0.49149064    -0.56500
O390        O  0.03825961  0.37325149  0.56659459    -0.55700
O391        O  0.00814518  0.58581926  0.88167539    -0.56900
C392        C  0.02082663  0.58494385  0.02551264     0.75700
O393        O  0.03404303  0.54381501  0.95028968    -0.58000
C394        C  0.01632443  0.58076653  0.84800143     0.75700
C395        C  0.05663496  0.59249244  0.91652877     0.78100
Cd396      Cd  0.02785647  0.57354849  0.93649068     1.37500
O397        O  0.01070157  0.58783926  0.99409098    -0.56900
O398        O  0.04242691  0.59861622  0.92418205    -0.55700
C399        C  0.01883707  0.53954754  0.95112429     0.78100
O400        O  0.05831940  0.57704698  0.92265160    -0.58100
O401        O  0.03413103  0.57756851  0.01470906    -0.56500
O402        O  0.02881853  0.57169111  0.85564059    -0.56500
O403        O  0.00834121  0.55073703  0.94259200    -0.55700
O404        O  0.98761050  0.38063718  0.01398573    -0.56900
C405        C  0.98105926  0.38750927  0.15819748     0.75700
O406        O  0.96265235  0.42353770  0.05858760    -0.58000
C407        C  0.97745102  0.38186797  0.98190605     0.75700
C408        C  0.93797861  0.37590966  0.08566825     0.78100
Cd409      Cd  0.96858413  0.39323214  0.06940202     1.37500
O410        O  0.98748533  0.37994364  0.12529968    -0.56900
O411        O  0.95211969  0.36900681  0.08555233    -0.55700
C412        C  0.97771750  0.42709825  0.05006496     0.78100
O413        O  0.93770589  0.39120793  0.07647484    -0.58100
O414        O  0.96995415  0.39804186  0.14902567    -0.56500
O415        O  0.96284651  0.38648119  0.99161104    -0.56500
O416        O  0.98798017  0.41531475  0.05263448    -0.55700
C417        C  0.00510816  0.46028287  0.00015626    -0.01100
C418        C  0.99639745  0.47495989  0.01004956     0.07500
C419        C  0.98102744  0.47384640  0.03224619    -0.07100
C420        C  0.97447292  0.45852311  0.04520106     0.04900
C421        C  0.98350044  0.44385945  0.03662567    -0.14300
C422        C  0.99878058  0.44505964  0.01393374    -0.07600
C423        C  0.00254913  0.49143175  0.99507032     0.05900
C424        C  0.99257721  0.50076607  0.96639972    -0.08700
C425        C  0.99778817  0.51617089  0.95071934     0.00900
C426        C  0.01341507  0.52261183  0.96355393     0.00700
C427        C  0.02345519  0.51320479  0.99204992    -0.12300
C428        C  0.01809998  0.49789071  0.00827335     0.01200
C429        C  0.98690557  0.52489367  0.92079540     0.40500
C430        C  0.02851916  0.48938722  0.03978069     0.37100
C431        C  0.02021440  0.46040840  0.97415590     0.36900
C432        C  0.95857391  0.45831518  0.06745136     0.37600
N433        N  0.97814814  0.53184510  0.89682114    -0.43200
N434        N  0.03694008  0.48259978  0.06492224    -0.43600
N435        N  0.94578037  0.45823243  0.08509427    -0.41000
N436        N  0.03232651  0.46051968  0.95335921    -0.42400
H437        H  0.00573208  0.43396414  0.00593166     0.13800
H438        H  0.97408126  0.48502722  0.03935103     0.10200
H439        H  0.98065831  0.49590947  0.95590162     0.11300
H440        H  0.03529738  0.51808978  0.00302181     0.17100
C441        C  0.00973569  0.39514969  0.35770559    -0.01100
C442        C  0.99889168  0.38252080  0.34408361     0.07500
C443        C  0.99228689  0.37183774  0.37619228    -0.07100
C444        C  0.99630741  0.37366815  0.42143062     0.04900
C445        C  0.00728492  0.38630421  0.43507665    -0.14300
C446        C  0.01398270  0.39679603  0.40252277    -0.07600
C447        C  0.99349711  0.38133111  0.29687609     0.05900
C448        C  0.00481751  0.37605685  0.26413097    -0.08700
C449        C  0.00089608  0.37713532  0.21870034     0.00900
C450        C  0.98563637  0.38430207  0.20541648     0.00700
C451        C  0.97410384  0.38883113  0.23856384    -0.12300
C452        C  0.97777566  0.38713563  0.28372416     0.01200
C453        C  0.01287144  0.37105803  0.18683281     0.40500
C454        C  0.96532394  0.39178751  0.31604394     0.37100
C455        C  0.01591506  0.40716660  0.32652086     0.36900
C456        C  0.98909784  0.36236971  0.45288949     0.37600
N457        N  0.02247144  0.36596144  0.16157036    -0.43200
N458        N  0.95527591  0.39533234  0.34194740    -0.43600
N459        N  0.98330101  0.35333153  0.47816764    -0.41000
N460        N  0.02069090  0.41685738  0.30148616    -0.42400
H461        H  0.02221676  0.40673924  0.41222567     0.13800
H462        H  0.98377906  0.36220706  0.36592095     0.10200
H463        H  0.01687379  0.37136261  0.27414329     0.11300
H464        H  0.96208333  0.39380008  0.22922202     0.17100
C465        C  0.00804076  0.37365843  0.77553481    -0.01100
C466        C  0.99327340  0.38038784  0.79361020     0.07500
C467        C  0.98264784  0.38935606  0.76546603    -0.07100
C468        C  0.98671603  0.39198138  0.72057856     0.04900
C469        C  0.00180756  0.38579017  0.70317178    -0.14300
C470        C  0.01221902  0.37652251  0.73098629    -0.07600
C471        C  0.98942427  0.37927278  0.84225720     0.05900
C472        C  0.00115750  0.38514531  0.87300103    -0.08700
C473        C  0.99788706  0.38514893  0.91876156     0.00900
C474        C  0.98246486  0.37936880  0.93484081     0.00700
C475        C  0.97077486  0.37332809  0.90425796    -0.12300
C476        C  0.97414524  0.37313826  0.85845026     0.01200
C477        C  0.01005458  0.39237855  0.94811474     0.40500
C478        C  0.96169631  0.36661759  0.82882056     0.37100
C479        C  0.01916729  0.36380530  0.80211265     0.36900
C480        C  0.97580231  0.40205686  0.69404072     0.37600
N481        N  0.01970453  0.39822599  0.97181510    -0.43200
N482        N  0.95166534  0.36143012  0.80514774    -0.43600
N483        N  0.96707230  0.41019578  0.67286295    -0.41000
N484        N  0.02807538  0.35596862  0.82358586    -0.42400
H485        H  0.02380967  0.37162483  0.71791570     0.13800
H486        H  0.97141262  0.39484654  0.77899249     0.10200
H487        H  0.01277785  0.39024890  0.86106416     0.11300
H488        H  0.95882581  0.36900115  0.91614363     0.17100
C489        C  0.99021928  0.58296289  0.22369666    -0.01100
C490        C  0.00406423  0.59252689  0.21156951     0.07500
C491        C  0.01311223  0.60065951  0.24486299    -0.07100
C492        C  0.00863825  0.59920931  0.28988501     0.04900
C493        C  0.99497966  0.58920286  0.30226731    -0.14300
C494        C  0.98589413  0.58129049  0.26846557    -0.07600
C495        C  0.00985388  0.59290271  0.16458609     0.05900
C496        C  0.00015045  0.60080515  0.13228842    -0.08700
C497        C  0.00376727  0.59903750  0.08682564     0.00900
C498        C  0.01733107  0.58909672  0.07298759     0.00700
C499        C  0.02750452  0.58196567  0.10578619    -0.12300
C500        C  0.02387791  0.58375803  0.15103763     0.01200
C501        C  0.99324695  0.60743585  0.05539985     0.40500
C502        C  0.03417959  0.57529458  0.18291928     0.37100
C503        C  0.98047824  0.57440946  0.19066438     0.36900
C504        C  0.01847863  0.60790258  0.32236109     0.37600
N505        N  0.98481958  0.61422490  0.03027614    -0.43200
N506        N  0.04240216  0.56852791  0.20855870    -0.43600
N507        N  0.02638350  0.61493677  0.34825806    -0.41000
N508        N  0.97269578  0.56766802  0.16395884    -0.42400
H509        H  0.97527245  0.57370972  0.27690108     0.13800
H510        H  0.02381741  0.60800069  0.23563365     0.10200
H511        H  0.98938301  0.60793633  0.14263867     0.11300
H512        H  0.03803102  0.57436734  0.09614741     0.17100
C513        C  0.98847834  0.60402691  0.64630049    -0.01100
C514        C  0.00209555  0.59470788  0.66229816     0.07500
C515        C  0.01202976  0.58616947  0.63123520    -0.07100
C516        C  0.00845684  0.58647367  0.58566197     0.04900
C517        C  0.99425065  0.59493303  0.57017628    -0.14300
C518        C  0.98451902  0.60380193  0.60085807    -0.07600
C519        C  0.00559864  0.59273091  0.71104630     0.05900
C520        C  0.99269631  0.58797139  0.74003798    -0.08700
C521        C  0.99572956  0.58476666  0.78515317     0.00900
C522        C  0.01207025  0.58544688  0.80173374     0.00700
C523        C  0.02495222  0.59029530  0.77307150    -0.12300
C524        C  0.02181620  0.59435816  0.72861398     0.01200
C525        C  0.98202432  0.58002104  0.81327278     0.40500
C526        C  0.03540399  0.60054063  0.70208384     0.37100
C527        C  0.97836875  0.61395717  0.67572007     0.36900
C528        C  0.01893736  0.57701077  0.55599304     0.37600
N529        N  0.97108108  0.57626509  0.83605415    -0.43200
N530        N  0.04626886  0.60553676  0.68082635    -0.43600
N531        N  0.02737453  0.56946164  0.53225170    -0.41000
N532        N  0.97025157  0.62190199  0.69931624    -0.42400
H533        H  0.97362705  0.61041912  0.58933394     0.13800
H534        H  0.02233991  0.57869665  0.64273760     0.10200
H535        H  0.98022233  0.58635162  0.72722723     0.11300
H536        H  0.03754576  0.59114082  0.78568947     0.17100
C537        C  0.00859478  0.51297566  0.50668599    -0.01100
C538        C  0.99761983  0.49949066  0.50573817     0.07500
C539        C  0.98151110  0.50177385  0.48883204    -0.07100
C540        C  0.97634503  0.51720409  0.47253898     0.04900
C541        C  0.98737832  0.53075117  0.47346127    -0.14300
C542        C  0.00346834  0.52833045  0.49060934    -0.07600
C543        C  0.00301895  0.48283051  0.52083015     0.05900
C544        C  0.99722533  0.47668713  0.56151345    -0.08700
C545        C  0.00214806  0.46104581  0.57661862     0.00900
C546        C  0.01306926  0.45122623  0.55075709     0.00700
C547        C  0.01916441  0.45760856  0.51059194    -0.12300
C548        C  0.01416728  0.47318250  0.49542425     0.01200
C549        C  0.99619648  0.45552927  0.61930076     0.40500
C550        C  0.02021223  0.47883321  0.45296328     0.37100
C551        C  0.02515237  0.51139984  0.52459150     0.36900
C552        C  0.95997623  0.51856820  0.45339613     0.37600
N553        N  0.99153780  0.45110122  0.65361917    -0.43200
N554        N  0.02501186  0.48340586  0.41892953    -0.43600
N555        N  0.94689993  0.51964491  0.43772899    -0.41000
N556        N  0.03842187  0.51015176  0.53894249    -0.42400
H557        H  0.01209445  0.53854685  0.49206005     0.13800
H558        H  0.97307822  0.49139894  0.48759750     0.10200
H559        H  0.98887859  0.48416162  0.58156433     0.11300
H560        H  0.02735869  0.45013779  0.49007656     0.17100
C561        C  0.23249532  0.21411568  0.24478843    -0.01100
C562        C  0.23914833  0.22845051  0.22497665     0.07500
C563        C  0.22991115  0.23641137  0.19186445    -0.07100
C564        C  0.21410611  0.23077424  0.17961660     0.04900
C565        C  0.20733006  0.21656228  0.19988450    -0.14300
C566        C  0.21682122  0.20826616  0.23192073    -0.07600
C567        C  0.25574666  0.23515793  0.23801729     0.05900
C568        C  0.26970320  0.22480805  0.23568425    -0.08700
C569        C  0.28537281  0.23021063  0.24949112     0.00900
C570        C  0.28745647  0.24649617  0.26584303     0.00700
C571        C  0.27360860  0.25709374  0.26642059    -0.12300
C572        C  0.25787649  0.25158759  0.25280734     0.01200
C573        C  0.29908136  0.21876085  0.24536933     0.40500
C574        C  0.24406062  0.26294496  0.25527331     0.37100
C575        C  0.24126158  0.20546187  0.27944336     0.36900
C576        C  0.20530922  0.23972418  0.14558508     0.37600
N577        N  0.31005252  0.20957973  0.24206376    -0.43200
N578        N  0.23297979  0.27205106  0.25686621    -0.43600
N579        N  0.19833058  0.24698267  0.11834351    -0.41000
N580        N  0.24836430  0.19850908  0.30703220    -0.42400
H581        H  0.21175660  0.19745658  0.24806603     0.13800
H582        H  0.23506231  0.24714241  0.17553875     0.10200
H583        H  0.26833451  0.21235694  0.22297290     0.11300
H584        H  0.27499278  0.26966143  0.27819571     0.17100
C585        C  0.08890753  0.36085254  0.64046960    -0.01100
C586        C  0.09136951  0.34600215  0.61692315     0.07500
C587        C  0.08174586  0.34280528  0.57914122    -0.07100
C588        C  0.06927697  0.35380730  0.56574119     0.04900
C589        C  0.06629015  0.36842550  0.59036680    -0.14300
C590        C  0.07655530  0.37198559  0.62687507    -0.07600
C591        C  0.10310731  0.33310693  0.63266833     0.05900
C592        C  0.09820743  0.32294360  0.66782745    -0.08700
C593        C  0.10804738  0.30955134  0.68096346     0.00900
C594        C  0.12334532  0.30629517  0.65929019     0.00700
C595        C  0.12860537  0.31700141  0.62542761    -0.12300
C596        C  0.11849015  0.33016231  0.61155936     0.01200
C597        C  0.10204245  0.29926059  0.71654832     0.40500
C598        C  0.12379290  0.34018992  0.57468785     0.37100
C599        C  0.09869283  0.36470772  0.67921300     0.36900
C600        C  0.05981789  0.34978405  0.52648339     0.37600
N601        N  0.09719529  0.29097301  0.74493441    -0.43200
N602        N  0.12786069  0.34824684  0.54497937    -0.43600
N603        N  0.05229837  0.34653162  0.49494404    -0.41000
N604        N  0.10655993  0.36775444  0.71027715    -0.42400
H605        H  0.07443395  0.38312199  0.64610581     0.13800
H606        H  0.08370898  0.33144693  0.56073163     0.10200
H607        H  0.08637419  0.32518333  0.68412974     0.11300
H608        H  0.14021153  0.31458017  0.60819694     0.17100
C609        C  0.13983540  0.22336216  0.87058584    -0.01100
C610        C  0.13886639  0.23506435  0.90543471     0.07500
C611        C  0.13657786  0.25172630  0.89452906    -0.07100
C612        C  0.13609340  0.25688133  0.85002590     0.04900
C613        C  0.13811061  0.24529084  0.81513956    -0.14300
C614        C  0.13943193  0.22851593  0.82606239    -0.07600
C615        C  0.14149652  0.23029177  0.95297334     0.05900
C616        C  0.15689429  0.22358028  0.96522608    -0.08700
C617        C  0.16017073  0.21894920  0.00919874     0.00900
C618        C  0.14770716  0.22060338  0.04235401     0.00700
C619        C  0.13243686  0.22780202  0.03029760    -0.12300
C620        C  0.12932562  0.23275811  0.98628410     0.01200
C621        C  0.17674059  0.21323804  0.01940260     0.40500
C622        C  0.11346806  0.24013615  0.97600484     0.37100
C623        C  0.14134338  0.20597298  0.87973746     0.36900
C624        C  0.13325991  0.27412670  0.84107802     0.37600
N625        N  0.19008857  0.20883460  0.02744021    -0.43200
N626        N  0.10079743  0.24617643  0.96787229    -0.43600
N627        N  0.13084243  0.28792248  0.83385244    -0.41000
N628        N  0.14249905  0.19202783  0.88705471    -0.42400
H629        H  0.14085785  0.21943644  0.79979161     0.13800
H630        H  0.13562247  0.26081837  0.92091283     0.10200
H631        H  0.16654568  0.22217708  0.94025697     0.11300
H632        H  0.12278619  0.22936506  0.05516040     0.17100
C633        C  0.13643823  0.23773175  0.36657178    -0.01100
C634        C  0.14043506  0.22743292  0.40277512     0.07500
C635        C  0.14470756  0.21096261  0.39414234    -0.07100
C636        C  0.14586943  0.20488875  0.35052479     0.04900
C637        C  0.14285875  0.21546120  0.31391164    -0.14300
C638        C  0.13774017  0.23174342  0.32280725    -0.07600
C639        C  0.14066343  0.23349862  0.44981512     0.05900
C640        C  0.13040593  0.22596326  0.48166225    -0.08700
C641        C  0.13105256  0.23053302  0.52678584     0.00900
C642        C  0.14229941  0.24285703  0.54106559     0.00700
C643        C  0.15237800  0.25048320  0.50881864    -0.12300
C644        C  0.15176110  0.24588476  0.46395825     0.01200
C645        C  0.12012528  0.22221968  0.55738806     0.40500
C646        C  0.16325315  0.25359129  0.43358238     0.37100
C647        C  0.13087459  0.25447201  0.37345587     0.36900
C648        C  0.15007145  0.18769486  0.34483755     0.37600
N649        N  0.11130710  0.21551636  0.58173294    -0.43200
N650        N  0.17248359  0.25986262  0.40948761    -0.43600
N651        N  0.15337252  0.17388062  0.34073244    -0.41000
N652        N  0.12644233  0.26790741  0.37890369    -0.42400
H653        H  0.13512545  0.24000188  0.29545992     0.13800
H654        H  0.14748505  0.20285455  0.42172889     0.10200
H655        H  0.12190731  0.21634946  0.47119790     0.11300
H656        H  0.16112457  0.25995581  0.51869077     0.17100
C657        C  0.34632235  0.24549636  0.61584154    -0.01100
C658        C  0.34725118  0.23406492  0.58040148     0.07500
C659        C  0.34817398  0.21722652  0.59027575    -0.07100
C660        C  0.34730690  0.21159818  0.63425223     0.04900
C661        C  0.34565646  0.22299064  0.66994124    -0.14300
C662        C  0.34562669  0.23992400  0.65996344    -0.07600
C663        C  0.34631043  0.23920557  0.53281444     0.05900
C664        C  0.35965602  0.23581480  0.50389690    -0.08700
C665        C  0.35881892  0.23982776  0.45848514     0.00900
C666        C  0.34432272  0.24732464  0.44114089     0.00700
C667        C  0.33104536  0.25067950  0.47031812    -0.12300
C668        C  0.33184408  0.24658659  0.51538035     0.01200
C669        C  0.37315240  0.23651304  0.43092005     0.40500
C670        C  0.31733299  0.24950911  0.54262197     0.37100
C671        C  0.34575180  0.26301000  0.60771189     0.36900
C672        C  0.34796810  0.19401471  0.64122198     0.37600
N673        N  0.38466191  0.23390158  0.40883829    -0.43200
N674        N  0.30567284  0.25188293  0.56430855    -0.43600
N675        N  0.34847946  0.17989272  0.64631028    -0.41000
N676        N  0.34514797  0.27704129  0.60115880    -0.42400
H677        H  0.34444562  0.24888306  0.68660797     0.13800
H678        H  0.34901735  0.20836719  0.56327325     0.10200
H679        H  0.37079111  0.23004385  0.51692416     0.11300
H680        H  0.31975126  0.25628697  0.45773810     0.17100
C681        C  0.35914062  0.23512757  0.99981962    -0.01100
C682        C  0.34683574  0.23269890  0.03270527     0.07500
C683        C  0.33119404  0.22683856  0.01963762    -0.07100
C684        C  0.32782948  0.22292936  0.97518009     0.04900
C685        C  0.34016647  0.22522885  0.94212192    -0.14300
C686        C  0.35568358  0.23156798  0.95504287    -0.07600
C687        C  0.34966424  0.23693048  0.08049439     0.05900
C688        C  0.35390820  0.25318208  0.09177543    -0.08700
C689        C  0.35481110  0.25825114  0.13622479     0.00900
C690        C  0.35158732  0.24691117  0.17070543     0.00700
C691        C  0.34832041  0.23041940  0.15958698    -0.12300
C692        C  0.34708055  0.22542101  0.11502152     0.01200
C693        C  0.35858638  0.27531436  0.14543964     0.40500
C694        C  0.34244424  0.20858554  0.10571760     0.37100
C695        C  0.37561587  0.24062440  0.01152611     0.36900
C696        C  0.31146638  0.21681271  0.96460086     0.37600
N697        N  0.36151804  0.28900979  0.15276297    -0.43200
N698        N  0.33850687  0.19514167  0.09841261    -0.43600
N699        N  0.29835153  0.21186396  0.95634194    -0.41000
N700        N  0.38880060  0.24500118  0.02120733    -0.42400
H701        H  0.36535998  0.23320462  0.93033305     0.13800
H702        H  0.32149953  0.22534199  0.04438414     0.10200
H703        H  0.35580560  0.26215889  0.06567998     0.11300
H704        H  0.34559367  0.22165279  0.18568772     0.17100
C705        C  0.25608468  0.23245499  0.78705426    -0.01100
C706        C  0.24817328  0.22443060  0.75123114     0.07500
C707        C  0.25613332  0.21085479  0.73125070    -0.07100
C708        C  0.27193839  0.20562341  0.74527215     0.04900
C709        C  0.28019721  0.21414400  0.77981816    -0.14300
C710        C  0.27193271  0.22735778  0.80077083    -0.07600
C711        C  0.23187781  0.23036253  0.73347747     0.05900
C712        C  0.23063475  0.24641424  0.71628081    -0.08700
C713        C  0.21540868  0.25270117  0.70088034     0.00900
C714        C  0.20090618  0.24292051  0.70308649     0.00700
C715        C  0.20238571  0.22662119  0.71860225    -0.12300
C716        C  0.21760745  0.22031404  0.73352325     0.01200
C717        C  0.21517424  0.26901977  0.68199502     0.40500
C718        C  0.21809388  0.20365085  0.75011413     0.37100
C719        C  0.24815657  0.24594478  0.81035197     0.36900
C720        C  0.27979507  0.19220926  0.72156256     0.37600
N721        N  0.21500206  0.28204602  0.66648310    -0.43200
N722        N  0.21843709  0.19026349  0.76319020    -0.43600
N723        N  0.28608383  0.18148373  0.70239368    -0.41000
N724        N  0.24178016  0.25674539  0.82900240    -0.42400
H725        H  0.27800953  0.23393983  0.82760716     0.13800
H726        H  0.25017894  0.20461909  0.70363161     0.10200
H727        H  0.24165329  0.25407453  0.71488100     0.11300
H728        H  0.19148741  0.21880523  0.72023891     0.17100
C729        C  0.39378980  0.36615358  0.34046121    -0.01100
C730        C  0.39068027  0.35116889  0.36236905     0.07500
C731        C  0.39966785  0.34727994  0.40068507    -0.07100
C732        C  0.41232585  0.35761969  0.41594396     0.04900
C733        C  0.41629029  0.37215035  0.39240588    -0.14300
C734        C  0.40653709  0.37656074  0.35558149    -0.07600
C735        C  0.37932004  0.33853881  0.34392798     0.05900
C736        C  0.38530816  0.32812531  0.31026416    -0.08700
C737        C  0.37620312  0.31433418  0.29664421     0.00900
C738        C  0.36086657  0.31067197  0.31737959     0.00700
C739        C  0.35435197  0.32180824  0.34881335    -0.12300
C740        C  0.36346832  0.33566687  0.36219356     0.01200
C741        C  0.38284268  0.30424933  0.26114366     0.40500
C742        C  0.35648080  0.34664801  0.39511706     0.37100
C743        C  0.38409996  0.37089921  0.30230987     0.36900
C744        C  0.42097470  0.35306603  0.45607185     0.37600
N745        N  0.38814595  0.29627057  0.23247145    -0.43200
N746        N  0.35081713  0.35553508  0.42124004    -0.43600
N747        N  0.42785317  0.34947574  0.48834024    -0.41000
N748        N  0.37613589  0.37461961  0.27199531    -0.42400
H749        H  0.40930953  0.38776051  0.33753572     0.13800
H750        H  0.39709956  0.33585773  0.41797149     0.10200
H751        H  0.39739101  0.33049973  0.29560290     0.11300
H752        H  0.34248853  0.31928739  0.36450193     0.17100
C753        C  0.49987624  0.50160187  0.53158626    -0.01100
C754        C  0.49119646  0.49899698  0.49137668     0.07500
C755        C  0.48724218  0.51264494  0.46492908    -0.07100
C756        C  0.49160361  0.52866189  0.47806388     0.04900
C757        C  0.50005068  0.53130099  0.51866049    -0.14300
C758        C  0.50438171  0.51762305  0.54458519    -0.07600
C759        C  0.48583709  0.48222430  0.47670483     0.05900
C760        C  0.46881028  0.47891092  0.47161426    -0.08700
C761        C  0.46318950  0.46312885  0.45952865     0.00900
C762        C  0.47477055  0.45021004  0.45217340     0.00700
C763        C  0.49183277  0.45378575  0.45602402    -0.12300
C764        C  0.49739778  0.46954374  0.46776833     0.01200
C765        C  0.44549857  0.46061926  0.45557472     0.40500
C766        C  0.51508188  0.47243379  0.46977386     0.37100
C767        C  0.50369661  0.48809135  0.56092571     0.36900
C768        C  0.48772285  0.54212595  0.44852663     0.37600
N769        N  0.43131078  0.45863501  0.45239068    -0.43200
N770        N  0.52925471  0.47471522  0.47160084    -0.43600
N771        N  0.48469309  0.55287686  0.42469803    -0.41000
N772        N  0.50679079  0.47718706  0.58416405    -0.42400
H773        H  0.51074412  0.51950489  0.57589761     0.13800
H774        H  0.48075174  0.51075888  0.43379996     0.10200
H775        H  0.45984097  0.48865761  0.47786376     0.11300
H776        H  0.50098897  0.44420833  0.44990474     0.17100
C777        C  0.47789104  0.37247902  0.73498149    -0.01100
C778        C  0.48413740  0.38218473  0.69993260     0.07500
C779        C  0.49507110  0.39504685  0.70987218    -0.07100
C780        C  0.49999468  0.39835290  0.75349792     0.04900
C781        C  0.49398739  0.38856577  0.78911014    -0.14300
C782        C  0.48292826  0.37562645  0.77902665    -0.07600
C783        C  0.47905576  0.38002198  0.65262076     0.05900
C784        C  0.46283596  0.38423659  0.64014407    -0.08700
C785        C  0.45852341  0.38596966  0.59523554     0.00900
C786        C  0.47067477  0.38354423  0.56147489     0.00700
C787        C  0.48656840  0.37807120  0.57416091    -0.12300
C788        C  0.49080718  0.37633279  0.61911614     0.01200
C789        C  0.44161047  0.39065050  0.58533160     0.40500
C790        C  0.50745186  0.37113853  0.63025023     0.37100
C791        C  0.46653205  0.35911277  0.72641568     0.36900
C792        C  0.51135980  0.41189291  0.75995507     0.37600
N793        N  0.42801796  0.39439950  0.57783269    -0.43200
N794        N  0.52077236  0.36693333  0.63926550    -0.43600
N795        N  0.52045542  0.42277274  0.76481051    -0.41000
N796        N  0.45740260  0.34841087  0.71954010    -0.42400
H797        H  0.47819240  0.36793756  0.80552540     0.13800
H798        H  0.49970944  0.40271029  0.68313514     0.10200
H799        H  0.45371045  0.38701344  0.66569635     0.11300
H800        H  0.49598609  0.37582321  0.54903041     0.17100
C801        C  0.51186273  0.38284599  0.13708753    -0.01100
C802        C  0.49544948  0.38298542  0.15329045     0.07500
C803        C  0.48224134  0.38258811  0.12290177    -0.07100
C804        C  0.48520244  0.38276396  0.07681594     0.04900
C805        C  0.50170198  0.38361239  0.06047496    -0.14300
C806        C  0.51485756  0.38322702  0.09123328    -0.07600
C807        C  0.49192277  0.38536117  0.20148305     0.05900
C808        C  0.49039191  0.40148834  0.21781891    -0.08700
C809        C  0.48679138  0.40451501  0.26268983     0.00900
C810        C  0.48454413  0.39119891  0.29234117     0.00700
C811        C  0.48688070  0.37505226  0.27632137    -0.12300
C812        C  0.49047194  0.37206223  0.23124814     0.01200
C813        C  0.48578591  0.42144004  0.27751818     0.40500
C814        C  0.49225050  0.35527062  0.21605795     0.37100
C815        C  0.52582266  0.38287035  0.16709556     0.36900
C816        C  0.47106635  0.38308215  0.04740694     0.37600
N817        N  0.48507439  0.43501406  0.28932303    -0.43200
N818        N  0.49365669  0.34178351  0.20398578    -0.43600
N819        N  0.45972510  0.38333433  0.02384960    -0.41000
N820        N  0.53697434  0.38283417  0.19128303    -0.42400
H821        H  0.52760359  0.38368650  0.07948388     0.13800
H822        H  0.46956668  0.38271829  0.13527414     0.10200
H823        H  0.49193724  0.41176527  0.19527575     0.11300
H824        H  0.48520420  0.36471947  0.29858882     0.17100
C825        C  0.48810098  0.60637103  0.25514116    -0.01100
C826        C  0.48974490  0.59337583  0.28571855     0.07500
C827        C  0.48723180  0.57715275  0.27130351    -0.07100
C828        C  0.48274640  0.57370391  0.22736740     0.04900
C829        C  0.48074552  0.58669222  0.19652513    -0.14300
C830        C  0.48371923  0.60296536  0.21084531    -0.07600
C831        C  0.49390154  0.59617847  0.33320326     0.05900
C832        C  0.48122236  0.60057976  0.36303187    -0.08700
C833        C  0.48400606  0.60065213  0.40906777     0.00900
C834        C  0.49982489  0.59624841  0.42598253     0.00700
C835        C  0.51273759  0.59287672  0.39553003    -0.12300
C836        C  0.50987473  0.59270995  0.34968371     0.01200
C837        C  0.47019983  0.60463985  0.43787669     0.40500
C838        C  0.52337593  0.58838645  0.32015096     0.37100
C839        C  0.49088690  0.62321747  0.26866778     0.36900
C840        C  0.48055357  0.55664954  0.21488595     0.37600
N841        N  0.45912792  0.60781925  0.46099717    -0.43200
N842        N  0.53419500  0.58491787  0.29648525    -0.43600
N843        N  0.47880711  0.54297121  0.20498057    -0.41000
N844        N  0.49318209  0.63668702  0.27977442    -0.42400
H845        H  0.48218065  0.61307492  0.18777168     0.13800
H846        H  0.48864681  0.56712503  0.29472929     0.10200
H847        H  0.46890058  0.60327827  0.35034874     0.11300
H848        H  0.52501637  0.58962192  0.40749227     0.17100
C849        C  0.48624838  0.57609243  0.77042861    -0.01100
C850        C  0.47948805  0.59098829  0.78669019     0.07500
C851        C  0.47570517  0.60358825  0.75646683    -0.07100
C852        C  0.47907126  0.60172957  0.71083152     0.04900
C853        C  0.48640187  0.58696322  0.69469872    -0.14300
C854        C  0.48963182  0.57422583  0.72509070    -0.07600
C855        C  0.47635615  0.59342400  0.83514421     0.05900
C856        C  0.48984681  0.59338847  0.86466660    -0.08700
C857        C  0.48735898  0.59336317  0.91086795     0.00900
C858        C  0.47100066  0.59328596  0.92842775     0.00700
C859        C  0.45758338  0.59441062  0.89858889    -0.12300
C860        C  0.46011812  0.59448948  0.85250479     0.01200
C861        C  0.50184296  0.59250431  0.93896169     0.40500
C862        C  0.44580192  0.59464519  0.82371227     0.37100
C863        C  0.48971428  0.56243366  0.79962321     0.36900
C864        C  0.47547410  0.61543469  0.68197115     0.37600
N865        N  0.51353808  0.59183663  0.96119001    -0.43200
N866        N  0.43432100  0.59477655  0.80064793    -0.43600
N867        N  0.47255680  0.62648007  0.65904437    -0.41000
N868        N  0.49248668  0.55146652  0.82293571    -0.42400
H869        H  0.49509774  0.56274504  0.71354471     0.13800
H870        H  0.47040512  0.61504287  0.76873669     0.10200
H871        H  0.50239434  0.59277111  0.85145334     0.11300
H872        H  0.44494436  0.59453656  0.91120498     0.17100
C873        C  0.50390970  0.47707443  0.95385797    -0.01100
C874        C  0.49357522  0.47923812  0.99155630     0.07500
C875        C  0.48829792  0.46530392  0.01501828    -0.07100
C876        C  0.49281112  0.44943456  0.00122364     0.04900
C877        C  0.50291243  0.44723169  0.96318737    -0.14300
C878        C  0.50866533  0.46114688  0.94039088    -0.07600
C879        C  0.48747903  0.49573251  0.00647003     0.05900
C880        C  0.47026965  0.49863339  0.00834732    -0.08700
C881        C  0.46382366  0.51383081  0.02282777     0.00900
C882        C  0.47474480  0.52671684  0.03514354     0.00700
C883        C  0.49198470  0.52353643  0.03437625    -0.12300
C884        C  0.49835921  0.50822513  0.02087489     0.01200
C885        C  0.44599113  0.51563948  0.02480423     0.40500
C886        C  0.51606159  0.50545454  0.02372101     0.37100
C887        C  0.50916376  0.49087923  0.92724818     0.36900
C888        C  0.48722832  0.43563414  0.02746523     0.37600
N889        N  0.43167082  0.51686861  0.02655002    -0.43200
N890        N  0.53024477  0.50324306  0.02614858    -0.43600
N891        N  0.48276457  0.42461772  0.04862477    -0.41000
N892        N  0.51344087  0.50189503  0.90581031    -0.42400
H893        H  0.51637007  0.45954783  0.91108064     0.13800
H894        H  0.48051862  0.46684959  0.04422402     0.10200
H895        H  0.46180016  0.48892366  0.99837720     0.11300
H896        H  0.50063187  0.53304298  0.04459495     0.17100
C897        C  0.00772082  0.97375063  0.48510270    -0.01100
C898        C  0.99127083  0.97762637  0.49808799     0.07500
C899        C  0.97915611  0.96525266  0.49563242    -0.07100
C900        C  0.98318134  0.94921847  0.48164410     0.04900
C901        C  0.99987653  0.94508822  0.47072686    -0.14300
C902        C  0.01189639  0.95761611  0.47237435    -0.07600
C903        C  0.98617632  0.99463050  0.51196365     0.05900
C904        C  0.97310663  0.00244116  0.48931497    -0.08700
C905        C  0.96811784  0.01852762  0.50032019     0.00900
C906        C  0.97665856  0.02737768  0.53366690     0.00700
C907        C  0.98945473  0.01945269  0.55702641    -0.12300
C908        C  0.99388340  0.00308557  0.54748095     0.01200
C909        C  0.95453756  0.02577040  0.47589192     0.40500
C910        C  0.00576975  0.99503148  0.57600375     0.37100
C911        C  0.02044630  0.98621841  0.48266566     0.36900
C912        C  0.96972989  0.93752995  0.47818108     0.37600
N913        N  0.94355505  0.03145144  0.45642887    -0.43200
N914        N  0.01520149  0.98859984  0.59919312    -0.43600
N915        N  0.95880514  0.92834331  0.47517133    -0.41000
N916        N  0.03069774  0.99616178  0.48061718    -0.42400
H917        H  0.02465744  0.95487339  0.46327704     0.13800
H918        H  0.96640792  0.96817188  0.50453630     0.10200
H919        H  0.96686312  0.99598730  0.46255478     0.11300
H920        H  0.99578442  0.02596909  0.58353214     0.17100
C921        C  0.98924880  0.89904209  0.23484443    -0.01100
C922        C  0.98132406  0.88452995  0.22037731     0.07500
C923        C  0.97806899  0.87204843  0.25131537    -0.07100
C924        C  0.98313174  0.87360930  0.29586160     0.04900
C925        C  0.99172710  0.88790478  0.31011138    -0.14300
C926        C  0.99439864  0.90058589  0.27906602    -0.07600
C927        C  0.97692543  0.88218692  0.17269993     0.05900
C928        C  0.98972273  0.87959849  0.14169720    -0.08700
C929        C  0.98653761  0.87955718  0.09586695     0.00900
C930        C  0.97020555  0.88240401  0.08012030     0.00700
C931        C  0.95727384  0.88403322  0.11156582    -0.12300
C932        C  0.96049170  0.88388330  0.15737881     0.01200
C933        C  0.00045724  0.87736221  0.06611114     0.40500
C934        C  0.94686319  0.88629659  0.18800730     0.37100
C935        C  0.99212657  0.91258439  0.20479390     0.36900
C936        C  0.97973380  0.86014369  0.32563572     0.37600
N937        N  0.01166635  0.87555989  0.04242026    -0.43200
N938        N  0.93594056  0.88820295  0.21258212    -0.43600
N939        N  0.97698398  0.84934230  0.34951014    -0.41000
N940        N  0.99434181  0.92342854  0.18065928    -0.42400
H941        H  0.00070202  0.91178389  0.28917483     0.13800
H942        H  0.97184022  0.86091073  0.24039216     0.10200
H943        H  0.00238392  0.87814020  0.15341541     0.11300
H944        H  0.94461950  0.88599617  0.10039459     0.17100
C945        C  0.00103623  0.87806544  0.75666573    -0.01100
C946        C  0.99118957  0.88264252  0.71990632     0.07500
C947        C  0.97515973  0.88881710  0.72760548    -0.07100
C948        C  0.96903503  0.89100490  0.77081064     0.04900
C949        C  0.97911516  0.88711699  0.80795076    -0.14300
C950        C  0.99499678  0.88037852  0.80015663    -0.07600
C951        C  0.99728971  0.88170276  0.67304071     0.05900
C952        C  0.98891130  0.87165455  0.64233690    -0.08700
C953        C  0.99291861  0.87194622  0.59684892     0.00900
C954        C  0.00533736  0.88278961  0.58096799     0.00700
C955        C  0.01412172  0.89234856  0.61225186    -0.12300
C956        C  0.01025152  0.89187508  0.65767430     0.01200
C957        C  0.98412713  0.86088855  0.56760646     0.40500
C958        C  0.01930723  0.90248353  0.68763228     0.37100
C959        C  0.01724608  0.87074238  0.75050036     0.36900
C960        C  0.95214098  0.89683308  0.77565134     0.37600
N961        N  0.97711761  0.85188341  0.54443375    -0.43200
N962        N  0.02662707  0.91083708  0.71186506    -0.43600
N963        N  0.93858155  0.90142788  0.77950208    -0.41000
N964        N  0.03024142  0.86487635  0.74544897    -0.42400
H965        H  0.00279346  0.87705563  0.82804977     0.13800
H966        H  0.96742218  0.89213453  0.69955482     0.10200
H967        H  0.97901907  0.86369165  0.65395369     0.11300
H968        H  0.02377292  0.90068336  0.60114891     0.17100
C969        C  0.10452090  0.13870427  0.16224033    -0.01100
C970        C  0.10799879  0.12922414  0.12403199     0.07500
C971        C  0.12310896  0.13159988  0.10162539    -0.07100
C972        C  0.13432791  0.14384724  0.11549425     0.04900
C973        C  0.13020083  0.15428383  0.15168706    -0.14300
C974        C  0.11546166  0.15119968  0.17539445    -0.07600
C975        C  0.09499299  0.11851314  0.10413256     0.05900
C976        C  0.08408699  0.12557390  0.07336955    -0.08700
C977        C  0.07012754  0.11698281  0.05820238     0.00900
C978        C  0.06686144  0.10086512  0.07378648     0.00700
C979        C  0.07838895  0.09342552  0.10258647    -0.12300
C980        C  0.09229501  0.10217778  0.11811463     0.01200
C981        C  0.05925571  0.12515023  0.02709395     0.40500
C982        C  0.10325904  0.09445882  0.14970019     0.37100
C983        C  0.08945078  0.13621178  0.18744899     0.36900
C984        C  0.14939269  0.14610612  0.09017381     0.37600
N985        N  0.05048839  0.13167241  0.00228400    -0.43200
N986        N  0.11205558  0.08829990  0.17508973    -0.43600
N987        N  0.16148925  0.14782898  0.06986886    -0.41000
N988        N  0.07741935  0.13410510  0.20775520    -0.42400
H989        H  0.11222619  0.15890810  0.20363910     0.13800
H990        H  0.12584433  0.12429386  0.07225937     0.10200
H991        H  0.08617823  0.13811928  0.06239047     0.11300
H992        H  0.07608858  0.08109238  0.11484301     0.17100
C993        C  0.01057794  0.08771759  0.26587822    -0.01100
C994        C  0.99429964  0.09207893  0.27925870     0.07500
C995        C  0.98251265  0.09579549  0.24624225    -0.07100
C996        C  0.98640358  0.09431309  0.20086156     0.04900
C997        C  0.00245405  0.08910439  0.18769995    -0.14300
C998        C  0.01444845  0.08627523  0.22069956    -0.07600
C999        C  0.98914863  0.09189560  0.32712476     0.05900
C1000       C  0.99814433  0.10102169  0.35876791    -0.08700
C1001       C  0.99441785  0.10007598  0.40436579     0.00900
C1002       C  0.98099183  0.09025259  0.41914643     0.00700
C1003       C  0.97171734  0.08157223  0.38711311    -0.12300
C1004       C  0.97574750  0.08212483  0.34191350     0.01200
C1005       C  0.00485218  0.10905092  0.43487003     0.40500
C1006       C  0.96634173  0.07186655  0.31181917     0.37100
C1007       C  0.02345873  0.08397102  0.29761517     0.36900
C1008       C  0.97346920  0.09745496  0.16884205     0.37600
N1009       N  0.01338964  0.11621241  0.45900781    -0.43200
N1010       N  0.95874207  0.06362743  0.28792303    -0.43600
N1011       N  0.96308061  0.09997075  0.14321323    -0.41000
N1012       N  0.03389595  0.08108115  0.32280834    -0.42400
H1013       H  0.02693426  0.08257498  0.21120397     0.13800
H1014       H  0.97006069  0.09949380  0.25601169     0.10200
H1015       H  0.00835339  0.10872117  0.34785985     0.11300
H1016       H  0.96146202  0.07381835  0.39742629     0.17100
C1017       C  0.98976623  0.07955239  0.76542613    -0.01100
C1018       C  0.99464736  0.09525357  0.78065448     0.07500
C1019       C  0.99732137  0.10781118  0.74946866    -0.07100
C1020       C  0.99425446  0.10515958  0.70395206     0.04900
C1021       C  0.98818292  0.08971062  0.68912717    -0.14300
C1022       C  0.98643662  0.07698261  0.72039261    -0.07600
C1023       C  0.99775305  0.09824609  0.82880711     0.05900
C1024       C  0.01412074  0.10067100  0.84311364    -0.08700
C1025       C  0.01816356  0.09978584  0.88829619     0.00900
C1026       C  0.00565112  0.09649168  0.92015098     0.00700
C1027       C  0.98902213  0.09586491  0.90619964    -0.12300
C1028       C  0.98500688  0.09663903  0.86090518     0.01200
C1029       C  0.03533946  0.10183661  0.90092278     0.40500
C1030       C  0.96783934  0.09484048  0.84791227     0.37100
C1031       C  0.98838325  0.06575155  0.79538275     0.36900
C1032       C  0.99714957  0.11859424  0.67368564     0.37600
N1033       N  0.04910310  0.10348204  0.91104347    -0.43200
N1034       N  0.95409952  0.09329519  0.83744873    -0.43600
N1035       N  0.99961355  0.12939331  0.64957660    -0.41000
N1036       N  0.98733237  0.05472887  0.81948703    -0.42400
H1037       H  0.98228425  0.06489672  0.70972697     0.13800
H1038       H  0.00161121  0.11976355  0.76080130     0.10200
H1039       H  0.02392173  0.10225272  0.81872602     0.11300
H1040       H  0.97926663  0.09358502  0.93029271     0.17100
C1041       C  0.00778054  0.00064697  0.99075412    -0.01100
C1042       C  0.99154358  0.99529167  0.00087988     0.07500
C1043       C  0.98095793  0.00578217  0.02494004    -0.07100
C1044       C  0.98615327  0.02151569  0.03828063     0.04900
C1045       C  0.00233318  0.02712204  0.02728422    -0.14300
C1046       C  0.01302067  0.01639477  0.00394997    -0.07600
C1047       C  0.98559668  0.97852469  0.98852313     0.05900
C1048       C  0.99339349  0.96480353  0.00745855    -0.08700
C1049       C  0.98800554  0.94880090  0.99793565     0.00900
C1050       C  0.97443624  0.94623246  0.96883836     0.00700
C1051       C  0.96649527  0.96000129  0.95019192    -0.12300
C1052       C  0.97202667  0.97605548  0.95958502     0.01200
C1053       C  0.99623496  0.93529392  0.02008737     0.40500
C1054       C  0.96392097  0.98979911  0.93828606     0.37100
C1055       C  0.01912825  0.99035722  0.96577607     0.36900
C1056       C  0.97466426  0.03134775  0.06413275     0.37600
N1057       N  0.00277595  0.92445461  0.03786069    -0.43200
N1058       N  0.95749955  0.00086342  0.92122815    -0.43600
N1059       N  0.96536849  0.03908751  0.08496012    -0.41000
N1060       N  0.02820332  0.98208269  0.94577271    -0.42400
H1061       H  0.02542373  0.02043066  0.99507399     0.13800
H1062       H  0.96859895  0.00156623  0.03372608     0.10200
H1063       H  0.00363278  0.96663750  0.03032129     0.11300
H1064       H  0.95616189  0.95821345  0.92763486     0.17100
C1065       C  0.10670128  0.65349875  0.88342358    -0.01100
C1066       C  0.10735874  0.63818917  0.86132328     0.07500
C1067       C  0.11816424  0.63609953  0.82506621    -0.07100
C1068       C  0.12779888  0.64930809  0.80957040     0.04900
C1069       C  0.12644956  0.66487666  0.83036834    -0.14300
C1070       C  0.11614523  0.66666147  0.86777394    -0.07600
C1071       C  0.09523408  0.62513683  0.87232828     0.05900
C1072       C  0.07893094  0.62715070  0.85736057    -0.08700
C1073       C  0.06643610  0.61630669  0.87036936     0.00900
C1074       C  0.07013052  0.60314221  0.89952299     0.00700
C1075       C  0.08668428  0.60063332  0.91281290    -0.12300
C1076       C  0.09924328  0.61159204  0.89944102     0.01200
C1077       C  0.04997216  0.61890047  0.85254366     0.40500
C1078       C  0.11604081  0.60906433  0.91464815     0.37100
C1079       C  0.09602157  0.65611022  0.92145288     0.36900
C1080       C  0.13796813  0.64688654  0.77055331     0.37600
N1081       N  0.03680962  0.62102891  0.83822049    -0.43200
N1082       N  0.12957359  0.60713763  0.92650495    -0.43600
N1083       N  0.14608510  0.64490165  0.73920343    -0.41000
N1084       N  0.08749500  0.65821071  0.95196485    -0.42400
H1085       H  0.11517614  0.67853842  0.88428963     0.13800
H1086       H  0.11853332  0.62435436  0.80777750     0.10200
H1087       H  0.07591670  0.63745635  0.83594806     0.11300
H1088       H  0.08970329  0.59047403  0.93465178     0.17100
C1089       C  0.25453571  0.76073580  0.75238185    -0.01100
C1090       C  0.24715551  0.74665797  0.73323202     0.07500
C1091       C  0.25557065  0.73812616  0.69945803    -0.07100
C1092       C  0.27138277  0.74303785  0.68560843     0.04900
C1093       C  0.27922259  0.75658746  0.70637686    -0.14300
C1094       C  0.27051633  0.76553564  0.73904156    -0.07600
C1095       C  0.23035886  0.74091928  0.74622208     0.05900
C1096       C  0.21657759  0.75053592  0.73475152    -0.08700
C1097       C  0.20040096  0.74490393  0.74233641     0.00900
C1098       C  0.19778335  0.72934497  0.76244635     0.00700
C1099       C  0.21168258  0.71983688  0.77446417    -0.12300
C1100       C  0.22786233  0.72546369  0.76641367     0.01200
C1101       C  0.18685540  0.75500235  0.72658109     0.40500
C1102       C  0.24172750  0.71517420  0.77903198     0.37100
C1103       C  0.24608238  0.77020716  0.78629112     0.36900
C1104       C  0.27893880  0.73438827  0.64870418     0.37600
N1105       N  0.17608576  0.76311952  0.71354931    -0.43200
N1106       N  0.25284577  0.70691972  0.78903208    -0.43600
N1107       N  0.28485345  0.72754250  0.61879173    -0.41000
N1108       N  0.23925333  0.77784789  0.81328178    -0.42400
H1109       H  0.27637679  0.77600540  0.75505612     0.13800
H1110       H  0.24964840  0.72766501  0.68353031     0.10200
H1111       H  0.21848700  0.76226973  0.71839259     0.11300
H1112       H  0.20992691  0.70794371  0.79005349     0.17100
C1113       C  0.38627471  0.61281236  0.09083367    -0.01100
C1114       C  0.38701704  0.62233641  0.13008401     0.07500
C1115       C  0.40045230  0.62020754  0.15903128    -0.07100
C1116       C  0.41365020  0.60968429  0.14784842     0.04900
C1117       C  0.41350241  0.60100688  0.10706338    -0.14300
C1118       C  0.39943154  0.60211106  0.07975262    -0.07600
C1119       C  0.37563713  0.63653094  0.13777059     0.05900
C1120       C  0.36138191  0.63482769  0.16432844    -0.08700
C1121       C  0.35114688  0.64851312  0.17380862     0.00900
C1122       C  0.35525989  0.66421395  0.15671031     0.00700
C1123       C  0.36946681  0.66571635  0.12980544    -0.12300
C1124       C  0.37958419  0.65211672  0.12031458     0.01200
C1125       C  0.33708557  0.64628067  0.20299077     0.40500
C1126       C  0.39425944  0.65449719  0.09338763     0.37100
C1127       C  0.37259461  0.61461611  0.06033370     0.36900
C1128       C  0.42740727  0.60821986  0.17836596     0.37600
N1129       N  0.32585186  0.64451022  0.22655105    -0.43200
N1130       N  0.40606237  0.65633222  0.07196064    -0.43600
N1131       N  0.43842663  0.60696864  0.20276648    -0.41000
N1132       N  0.36159574  0.61612406  0.03598803    -0.42400
H1133       H  0.39919402  0.59546289  0.04845717     0.13800
H1134       H  0.40105187  0.62747153  0.18929368     0.10200
H1135       H  0.35843188  0.62288878  0.17825314     0.11300
H1136       H  0.37278064  0.67763346  0.11627390     0.17100
C1137       C  0.35206667  0.73415561  0.48989475    -0.01100
C1138       C  0.34033725  0.73872072  0.45734511     0.07500
C1139       C  0.32627641  0.74776037  0.47049614    -0.07100
C1140       C  0.32392196  0.75259219  0.51481288     0.04900
C1141       C  0.33579189  0.74823616  0.54759905    -0.14300
C1142       C  0.34968880  0.73883943  0.53445270    -0.07600
C1143       C  0.34210490  0.73382556  0.40965317     0.05900
C1144       C  0.34214946  0.71704214  0.39834120    -0.08700
C1145       C  0.34206523  0.71190606  0.35381058     0.00900
C1146       C  0.34187552  0.72371484  0.31921517     0.00700
C1147       C  0.34269257  0.74050647  0.33063779    -0.12300
C1148       C  0.34269051  0.74561211  0.37525540     0.01200
C1149       C  0.34202238  0.69440729  0.34482170     0.40500
C1150       C  0.34303196  0.76304603  0.38492146     0.37100
C1151       C  0.36697042  0.72521263  0.47810968     0.36900
C1152       C  0.30905936  0.76186610  0.52529129     0.37600
N1153       N  0.34197794  0.68038883  0.33759078    -0.43200
N1154       N  0.34324128  0.77702205  0.39267209    -0.43600
N1155       N  0.29715005  0.76932520  0.53346385    -0.41000
N1156       N  0.37895188  0.71808446  0.46869058    -0.42400
H1157       H  0.35897554  0.73546778  0.55883487     0.13800
H1158       H  0.31703004  0.75104039  0.44587597     0.10200
H1159       H  0.34173535  0.70789520  0.42447787     0.11300
H1160       H  0.34258158  0.74973639  0.30470248     0.17100
C1161       C  0.34952540  0.73271353  0.87734307    -0.01100
C1162       C  0.34255720  0.74274570  0.91102827     0.07500
C1163       C  0.33670081  0.75843024  0.89996892    -0.07100
C1164       C  0.33684265  0.76395892  0.85606416     0.04900
C1165       C  0.34264425  0.75348813  0.82132296    -0.14300
C1166       C  0.34932176  0.73802010  0.83288857    -0.07600
C1167       C  0.34076374  0.73721775  0.95795683     0.05900
C1168       C  0.34812001  0.74655055  0.99197832    -0.08700
C1169       C  0.34571125  0.74256710  0.03685495     0.00900
C1170       C  0.33592397  0.72876758  0.04850455     0.00700
C1171       C  0.32836215  0.71962467  0.01422897    -0.12300
C1172       C  0.33052744  0.72381146  0.96951886     0.01200
C1173       C  0.35289151  0.75329368  0.06992554     0.40500
C1174       C  0.32148164  0.71461641  0.93631084     0.37100
C1175       C  0.35715891  0.71709033  0.88788117     0.36900
C1176       C  0.33062298  0.78040760  0.84831496     0.37600
N1177       N  0.35856623  0.76203282  0.09625458    -0.43200
N1178       N  0.31419785  0.70726171  0.90976064    -0.43600
N1179       N  0.32567518  0.79363094  0.84256186    -0.41000
N1180       N  0.36332001  0.70462684  0.89671769    -0.42400
H1181       H  0.35418751  0.72994460  0.80717594     0.13800
H1182       H  0.33162730  0.76632492  0.92586002     0.10200
H1183       H  0.35558654  0.75719191  0.98337566     0.11300
H1184       H  0.32057821  0.70915453  0.02226691     0.17100
C1185       C  0.07631013  0.84168370  0.41738251    -0.01100
C1186       C  0.08395458  0.84353525  0.37553964     0.07500
C1187       C  0.08046012  0.85769314  0.35046909    -0.07100
C1188       C  0.06883902  0.86947098  0.36557816     0.04900
C1189       C  0.06044744  0.86707100  0.40636918    -0.14300
C1190       C  0.06464449  0.85332138  0.43227112    -0.07600
C1191       C  0.09419826  0.82996807  0.35597841     0.05900
C1192       C  0.08611162  0.81565620  0.34155452    -0.08700
C1193       C  0.09507929  0.80198561  0.32587067     0.00900
C1194       C  0.11270556  0.80252907  0.32342957     0.00700
C1195       C  0.12075192  0.81708190  0.33723735    -0.12300
C1196       C  0.11167685  0.83062599  0.35387371     0.01200
C1197       C  0.08570705  0.78749525  0.31375428     0.40500
C1198       C  0.12054177  0.84471435  0.37091533     0.37100
C1199       C  0.07993453  0.82763840  0.44503634     0.36900
C1200       C  0.06474202  0.88312200  0.33699064     0.37600
N1201       N  0.07818842  0.77584716  0.30444676    -0.43200
N1202       N  0.12759250  0.85597221  0.38506338    -0.43600
N1203       N  0.06141060  0.89403439  0.31400422    -0.41000
N1204       N  0.08289769  0.81636989  0.46710560    -0.42400
H1205       H  0.05836204  0.85137537  0.46374544     0.13800
H1206       H  0.08624843  0.85915717  0.31815632     0.10200
H1207       H  0.07266168  0.81503845  0.34358591     0.11300
H1208       H  0.13420514  0.81772282  0.33643781     0.17100
C1209       C  0.11725789  0.72637226  0.47781711    -0.01100
C1210       C  0.13039829  0.72708462  0.50853667     0.07500
C1211       C  0.14626329  0.73159174  0.49392416    -0.07100
C1212       C  0.14914420  0.73585780  0.44958944     0.04900
C1213       C  0.13589510  0.73568703  0.41860806    -0.14300
C1214       C  0.12008086  0.73057715  0.43316574    -0.07600
C1215       C  0.12811884  0.72331115  0.55634794     0.05900
C1216       C  0.13084661  0.70719119  0.57103742    -0.08700
C1217       C  0.13176963  0.70365270  0.61649488     0.00900
C1218       C  0.13027764  0.71654924  0.64824839     0.00700
C1219       C  0.12620872  0.73244774  0.63327232    -0.12300
C1220       C  0.12512848  0.73588430  0.58777066     0.01200
C1221       C  0.13447560  0.68671108  0.62921104     0.40500
C1222       C  0.12157038  0.75253006  0.57395647     0.37100
C1223       C  0.10074844  0.72180680  0.49185656     0.36900
C1224       C  0.16590179  0.74022264  0.43704500     0.37600
N1225       N  0.13656726  0.67309278  0.63908845    -0.43200
N1226       N  0.11863929  0.76585930  0.56286641    -0.43600
N1227       N  0.17934718  0.74370747  0.42716207    -0.41000
N1228       N  0.08754129  0.71817296  0.50346276    -0.42400
H1229       H  0.10976545  0.73044632  0.41006817     0.13800
H1230       H  0.15643459  0.73193261  0.51750849     0.10200
H1231       H  0.13285007  0.69744549  0.54683349     0.11300
H1232       H  0.12473252  0.74243978  0.65697738     0.17100
C1233       C  0.12674348  0.72681844  0.08955248    -0.01100
C1234       C  0.12873821  0.73926311  0.05718262     0.07500
C1235       C  0.12927597  0.75573580  0.07114350    -0.07100
C1236       C  0.12921297  0.75989386  0.11633786     0.04900
C1237       C  0.12870915  0.74738057  0.14909497    -0.14300
C1238       C  0.12685998  0.73093391  0.13496477    -0.07600
C1239       C  0.13163766  0.73549166  0.00912745     0.05900
C1240       C  0.12163623  0.74292346  0.97645956    -0.08700
C1241       C  0.12465919  0.74026068  0.93089030     0.00900
C1242       C  0.13780394  0.72973951  0.91733437     0.00700
C1243       C  0.14802554  0.72280549  0.95022051    -0.12300
C1244       C  0.14524809  0.72573076  0.99531669     0.01200
C1245       C  0.11438906  0.74882675  0.89917218     0.40500
C1246       C  0.15703389  0.71899420  0.02651247     0.37100
C1247       C  0.12489816  0.70971790  0.07699926     0.36900
C1248       C  0.12996065  0.77716763  0.12776815     0.37600
N1249       N  0.10622655  0.75586449  0.87391146    -0.43200
N1250       N  0.16650133  0.71347678  0.05124445    -0.43600
N1251       N  0.13056095  0.79102585  0.13680761    -0.41000
N1252       N  0.12357908  0.69601488  0.06682703    -0.42400
H1253       H  0.12615067  0.72117170  0.15937595     0.13800
H1254       H  0.13046580  0.76541096  0.04658197     0.10200
H1255       H  0.11149266  0.75093081  0.98663061     0.11300
H1256       H  0.15840332  0.71496202  0.94084136     0.17100
C1257       C  0.25557015  0.74526090  0.20989533    -0.01100
C1258       C  0.24415151  0.73437324  0.22949386     0.07500
C1259       C  0.24898012  0.71808367  0.23799214    -0.07100
C1260       C  0.26507882  0.71256664  0.22773268     0.04900
C1261       C  0.27670443  0.72351022  0.20847326    -0.14300
C1262       C  0.27170446  0.73984613  0.19990685    -0.07600
C1263       C  0.22689972  0.73961618  0.23987447     0.05900
C1264       C  0.21417873  0.73504186  0.21074810    -0.08700
C1265       C  0.19770267  0.73969516  0.21904379     0.00900
C1266       C  0.19369900  0.74896516  0.25749402     0.00700
C1267       C  0.20652595  0.75393044  0.28607366    -0.12300
C1268       C  0.22305675  0.74926935  0.27761321     0.01200
C1269       C  0.18522613  0.73535847  0.18663270     0.40500
C1270       C  0.23583735  0.75417082  0.30848265     0.37100
C1271       C  0.25077740  0.76189991  0.19874392     0.36900
C1272       C  0.26936506  0.69576301  0.23844551     0.37600
N1273       N  0.17524469  0.73201079  0.16052373    -0.43200
N1274       N  0.24611522  0.75806451  0.33317445    -0.43600
N1275       N  0.27281756  0.68229406  0.24702433    -0.41000
N1276       N  0.24675170  0.77517029  0.18971912    -0.42400
H1277       H  0.28036134  0.74841153  0.18491584     0.13800
H1278       H  0.24013134  0.70967327  0.25286348     0.10200
H1279       H  0.21717568  0.72791341  0.18124136     0.11300
H1280       H  0.20357537  0.76102444  0.31565468     0.17100
C1281       C  0.87918388  0.32090711  0.09662572    -0.01100
C1282       C  0.88143301  0.33435108  0.12571062     0.07500
C1283       C  0.87190452  0.33529072  0.16479449    -0.07100
C1284       C  0.86055221  0.32277325  0.17563878     0.04900
C1285       C  0.85870259  0.30907544  0.14704015    -0.14300
C1286       C  0.86796058  0.30841116  0.10752587    -0.07600
C1287       C  0.89538305  0.34602633  0.11869767     0.05900
C1288       C  0.89321626  0.36003234  0.09208493    -0.08700
C1289       C  0.90677582  0.37021038  0.08136400     0.00900
C1290       C  0.92285002  0.36628514  0.09719092     0.00700
C1291       C  0.92480701  0.35235239  0.12436610    -0.12300
C1292       C  0.91130171  0.34232281  0.13522988     0.01200
C1293       C  0.90399744  0.38402464  0.05225993     0.40500
C1294       C  0.91410042  0.32798345  0.16252670     0.37100
C1295       C  0.88887601  0.31932248  0.05641441     0.36900
C1296       C  0.85205701  0.32354722  0.21786411     0.37600
N1297       N  0.90179107  0.39507574  0.02880245    -0.43200
N1298       N  0.91623510  0.31646901  0.18435713    -0.43600
N1299       N  0.84538217  0.32412366  0.25192098    -0.41000
N1300       N  0.89669093  0.31809122  0.02426200    -0.42400
H1301       H  0.86667220  0.29787545  0.08550449     0.13800
H1302       H  0.87389034  0.34542383  0.18774541     0.10200
H1303       H  0.88100441  0.36276378  0.07877145     0.11300
H1304       H  0.93700443  0.34919195  0.13711369     0.17100
C1305       C  0.75474316  0.23416330  0.18940741    -0.01100
C1306       C  0.74465265  0.24373381  0.21796104     0.07500
C1307       C  0.75095173  0.25855218  0.23521892    -0.07100
C1308       C  0.76708228  0.26382223  0.22483205     0.04900
C1309       C  0.77727908  0.25411689  0.19674652    -0.14300
C1310       C  0.77091064  0.23933562  0.17934344    -0.07600
C1311       C  0.72768812  0.23828957  0.23116003     0.05900
C1312       C  0.72581613  0.22358470  0.25508537    -0.08700
C1313       C  0.71007756  0.21814928  0.26876116     0.00900
C1314       C  0.69575708  0.22748389  0.25816772     0.00700
C1315       C  0.69773487  0.24227291  0.23449536    -0.12300
C1316       C  0.71345984  0.24772110  0.22111763     0.01200
C1317       C  0.70916395  0.20339040  0.29525126     0.40500
C1318       C  0.71464782  0.26291900  0.19653595     0.37100
C1319       C  0.74868373  0.21913557  0.16944046     0.36900
C1320       C  0.77316214  0.27868069  0.24562661     0.37600
N1321       N  0.70854570  0.19161537  0.31674945    -0.43200
N1322       N  0.71561285  0.27513813  0.17702241    -0.43600
N1323       N  0.77804159  0.29055141  0.26249310    -0.41000
N1324       N  0.74382012  0.20711146  0.15335337    -0.42400
H1325       H  0.77860706  0.23177554  0.15771396     0.13800
H1326       H  0.74333630  0.26585866  0.25766523     0.10200
H1327       H  0.73676013  0.21644837  0.26369373     0.11300
H1328       H  0.68691213  0.24959908  0.22598279     0.17100
C1329       C  0.86250992  0.13718804  0.60260328    -0.01100
C1330       C  0.87777035  0.13458179  0.62455924     0.07500
C1331       C  0.88159347  0.14423634  0.66184019    -0.07100
C1332       C  0.87095246  0.15690421  0.67601889     0.04900
C1333       C  0.85607686  0.16015959  0.65271241    -0.14300
C1334       C  0.85174888  0.14983688  0.61696228    -0.07600
C1335       C  0.89067402  0.12294754  0.60750065     0.05900
C1336       C  0.89991228  0.12744145  0.56991900    -0.08700
C1337       C  0.91400215  0.11840637  0.55684487     0.00900
C1338       C  0.91900567  0.10438845  0.58130104     0.00700
C1339       C  0.90914043  0.09934982  0.61739098    -0.12300
C1340       C  0.89521813  0.10860853  0.63092061     0.01200
C1341       C  0.92313328  0.12386542  0.51829771     0.40500
C1342       C  0.88604084  0.10347276  0.66968643     0.37100
C1343       C  0.85775117  0.12716784  0.56506484     0.36900
C1344       C  0.87556714  0.16634330  0.71479752     0.37600
N1345       N  0.93047952  0.12822008  0.48742992    -0.43200
N1346       N  0.87868969  0.09940434  0.70082811    -0.43600
N1347       N  0.87919874  0.17388350  0.74597374    -0.41000
N1348       N  0.85385406  0.11911343  0.53507274    -0.42400
H1349       H  0.84032799  0.15212538  0.59893585     0.13800
H1350       H  0.89322423  0.14218598  0.67913756     0.10200
H1351       H  0.89649173  0.13846109  0.55179561     0.11300
H1352       H  0.91276071  0.08861243  0.63641905     0.17100
C1353       C  0.84506785  0.21258827  0.89014561    -0.01100
C1354       C  0.84159152  0.22878832  0.90481605     0.07500
C1355       C  0.83880862  0.24103824  0.87277760    -0.07100
C1356       C  0.83832276  0.23724554  0.82723516     0.04900
C1357       C  0.84065159  0.22081100  0.81258712    -0.14300
C1358       C  0.84436611  0.20871047  0.84456264    -0.07600
C1359       C  0.83949923  0.23307666  0.95305430     0.05900
C1360       C  0.85279318  0.23120364  0.98290748    -0.08700
C1361       C  0.85122982  0.23592041  0.02783624     0.00900
C1362       C  0.83617689  0.24292086  0.04359191     0.00700
C1363       C  0.82281748  0.24438149  0.01383676    -0.12300
C1364       C  0.82428567  0.23942652  0.96935921     0.01200
C1365       C  0.86548706  0.23407760  0.05639095     0.40500
C1366       C  0.80984769  0.24076016  0.94117415     0.37100
C1367       C  0.84877765  0.19962162  0.92131542     0.36900
C1368       C  0.83420756  0.25031051  0.79678003     0.37600
N1369       N  0.87691912  0.23258012  0.07928812    -0.43200
N1370       N  0.79829195  0.24180060  0.91854374    -0.43600
N1371       N  0.83085229  0.26084347  0.77257972    -0.41000
N1372       N  0.85191451  0.18930784  0.94640221    -0.42400
H1373       H  0.84639170  0.19606889  0.83399160     0.13800
H1374       H  0.83639014  0.25358806  0.88359973     0.10200
H1375       H  0.86454588  0.22634819  0.97087296     0.11300
H1376       H  0.81108435  0.24946433  0.02535229     0.17100
C1377       C  0.85087573  0.23261349  0.36921492    -0.01100
C1378       C  0.84248456  0.24103018  0.40382034     0.07500
C1379       C  0.83398225  0.25563943  0.39379686    -0.07100
C1380       C  0.83297880  0.26147793  0.35009272     0.04900
C1381       C  0.84041546  0.25243189  0.31469645    -0.14300
C1382       C  0.84963429  0.23822490  0.32524078    -0.07600
C1383       C  0.84164658  0.23460666  0.45031069     0.05900
C1384       C  0.84782343  0.24422299  0.48545293    -0.08700
C1385       C  0.84591048  0.23932144  0.52996971     0.00900
C1386       C  0.83765127  0.22440176  0.54027858     0.00700
C1387       C  0.83156274  0.21478848  0.50475917    -0.12300
C1388       C  0.83335218  0.21978613  0.46041694     0.01200
C1389       C  0.85206975  0.25019631  0.56413023     0.40500
C1390       C  0.82576392  0.20993772  0.42596160     0.37100
C1391       C  0.86103757  0.21832144  0.37796720     0.36900
C1392       C  0.82401662  0.27669664  0.34310267     0.37600
N1393       N  0.85697729  0.25901725  0.59135660    -0.43200
N1394       N  0.81967562  0.20213090  0.39820768    -0.43600
N1395       N  0.81689435  0.28894491  0.33784872    -0.41000
N1396       N  0.86930042  0.20690474  0.38459343    -0.42400
H1397       H  0.85576517  0.23131610  0.29899412     0.13800
H1398       H  0.82773130  0.26234506  0.42025825     0.10200
H1399       H  0.85393583  0.25579494  0.47805270     0.11300
H1400       H  0.82505787  0.20338314  0.51155105     0.17100
C1401       C  0.58966704  0.32146768  0.83507082    -0.01100
C1402       C  0.59662484  0.33673939  0.84746607     0.07500
C1403       C  0.61380809  0.33909614  0.84252566    -0.07100
C1404       C  0.62414399  0.32622463  0.82751265     0.04900
C1405       C  0.61729696  0.31052335  0.81823261    -0.14300
C1406       C  0.59995538  0.30858194  0.82103576    -0.07600
C1407       C  0.58600891  0.34985090  0.86753981     0.05900
C1408       C  0.57716657  0.34608744  0.90635943    -0.08700
C1409       C  0.56455715  0.35645620  0.92203496     0.00900
C1410       C  0.56082423  0.37121161  0.89928464     0.00700
C1411       C  0.57081363  0.37579898  0.86299654    -0.12300
C1412       C  0.58326601  0.36517338  0.84676324     0.01200
C1413       C  0.55529883  0.35132577  0.96072696     0.40500
C1414       C  0.59219812  0.36968947  0.80702854     0.37100
C1415       C  0.57192954  0.31870090  0.83647578     0.36900
C1416       C  0.64162346  0.32955216  0.82181909     0.37600
N1417       N  0.54782452  0.34715451  0.99156205    -0.43200
N1418       N  0.59939124  0.37327550  0.77519122    -0.43600
N1419       N  0.65561971  0.33224195  0.81681834    -0.41000
N1420       N  0.55772481  0.31652968  0.83760919    -0.42400
H1421       H  0.59432290  0.29681758  0.81306694     0.13800
H1422       H  0.61919114  0.35090141  0.85123512     0.10200
H1423       H  0.57953295  0.33450630  0.92312351     0.11300
H1424       H  0.56814218  0.38713196  0.84540177     0.17100
C1425       C  0.63824126  0.26217972  0.57979013    -0.01100
C1426       C  0.63031321  0.24772281  0.56507399     0.07500
C1427       C  0.62291500  0.23729423  0.59648457    -0.07100
C1428       C  0.62378566  0.24079765  0.64218609     0.04900
C1429       C  0.63240761  0.25494165  0.65726921    -0.14300
C1430       C  0.63917503  0.26568762  0.62530995    -0.07600
C1431       C  0.63176961  0.24215155  0.51806114     0.05900
C1432       C  0.64366110  0.23009582  0.50808353    -0.08700
C1433       C  0.64653606  0.22494595  0.46432234     0.00900
C1434       C  0.63709653  0.23171374  0.42891004     0.00700
C1435       C  0.62502731  0.24376726  0.43922378    -0.12300
C1436       C  0.62242582  0.24910508  0.48323708     0.01200
C1437       C  0.65950705  0.21286579  0.45738854     0.40500
C1438       C  0.61019826  0.26176608  0.49185686     0.37100
C1439       C  0.64632751  0.27312250  0.54886008     0.36900
C1440       C  0.61599847  0.22947826  0.67260868     0.37600
N1441       N  0.66999177  0.20325189  0.45221522    -0.43200
N1442       N  0.60042742  0.27197093  0.49857334    -0.43600
N1443       N  0.60973117  0.22043104  0.69705162    -0.41000
N1444       N  0.65280738  0.28185497  0.52398724    -0.42400
H1445       H  0.64580751  0.27664025  0.63583732     0.13800
H1446       H  0.61686304  0.22609687  0.58526803     0.10200
H1447       H  0.65102816  0.22490413  0.53476522     0.11300
H1448       H  0.61767940  0.24915975  0.41285581     0.17100
C1449       C  0.61735670  0.23662697  0.98754300    -0.01100
C1450       C  0.62888321  0.24023751  0.02153236     0.07500
C1451       C  0.64406770  0.24748587  0.00985641    -0.07100
C1452       C  0.64776029  0.25157629  0.96581269     0.04900
C1453       C  0.63623345  0.24808767  0.93146634    -0.14300
C1454       C  0.62113910  0.24043639  0.94303827    -0.07600
C1455       C  0.62592631  0.23608537  0.06931265     0.05900
C1456       C  0.62342631  0.21957829  0.08145232    -0.08700
C1457       C  0.62360563  0.21478797  0.12622481     0.00900
C1458       C  0.62651414  0.22663003  0.15998601     0.00700
C1459       C  0.62756214  0.24329588  0.14800799    -0.12300
C1460       C  0.62739513  0.24807359  0.10330613     0.01200
C1461       C  0.62093510  0.19761815  0.13640890     0.40500
C1462       C  0.62945018  0.26532695  0.09322521     0.37100
C1463       C  0.60133129  0.22962031  0.99773389     0.36900
C1464       C  0.66362183  0.25925100  0.95731557     0.37600
N1465       N  0.61867676  0.18386269  0.14439131    -0.43200
N1466       N  0.63123219  0.27916079  0.08540258    -0.43600
N1467       N  0.67631757  0.26547457  0.95081224    -0.41000
N1468       N  0.58847228  0.22404643  0.00601243    -0.42400
H1469       H  0.61205416  0.23781834  0.91744914     0.13800
H1470       H  0.65318185  0.24996562  0.03551322     0.10200
H1471       H  0.62211804  0.21026384  0.05579303     0.11300
H1472       H  0.62960441  0.25256773  0.17343978     0.17100
C1473       C  0.75136550  0.21571773  0.74506248    -0.01100
C1474       C  0.74409417  0.22983802  0.72568071     0.07500
C1475       C  0.75271833  0.23800171  0.69177531    -0.07100
C1476       C  0.76837907  0.23249772  0.67745097     0.04900
C1477       C  0.77567882  0.21833389  0.69677937    -0.14300
C1478       C  0.76682444  0.20991671  0.72989640    -0.07600
C1479       C  0.72758189  0.23639223  0.74017230     0.05900
C1480       C  0.72634901  0.25259711  0.75665369    -0.08700
C1481       C  0.71095186  0.25931638  0.76976144     0.00900
C1482       C  0.69634684  0.24969003  0.76655360     0.00700
C1483       C  0.69770741  0.23353111  0.74968999    -0.12300
C1484       C  0.71299194  0.22692908  0.73628800     0.01200
C1485       C  0.71064592  0.27598522  0.78665438     0.40500
C1486       C  0.71323038  0.21056282  0.71729627     0.37100
C1487       C  0.74373756  0.20757780  0.78243771     0.36900
C1488       C  0.77663043  0.24167660  0.64285386     0.37600
N1489       N  0.71050052  0.28936042  0.80014296    -0.43200
N1490       N  0.71337315  0.19741159  0.70230909    -0.43600
N1491       N  0.78326102  0.24908998  0.61527802    -0.41000
N1492       N  0.73768975  0.20107381  0.81252286    -0.42400
H1493       H  0.77239612  0.19927337  0.74574018     0.13800
H1494       H  0.74721540  0.24881911  0.67660774     0.10200
H1495       H  0.73750231  0.26001586  0.75940365     0.11300
H1496       H  0.68667709  0.22598727  0.74609600     0.17100
C1497       C  0.59143756  0.12537322  0.41389878    -0.01100
C1498       C  0.59755378  0.12325759  0.37040823     0.07500
C1499       C  0.59276329  0.10935574  0.34582172    -0.07100
C1500       C  0.58097584  0.09827343  0.36280550     0.04900
C1501       C  0.57358809  0.10131583  0.40476116    -0.14300
C1502       C  0.57949286  0.11451834  0.43057926    -0.07600
C1503       C  0.60661836  0.13683984  0.34820295     0.05900
C1504       C  0.62392999  0.13801890  0.35208648    -0.08700
C1505       C  0.63238562  0.15208765  0.33711992     0.00900
C1506       C  0.62339082  0.16525621  0.31767897     0.00700
C1507       C  0.60612982  0.16357200  0.31212208    -0.12300
C1508       C  0.59773798  0.14965032  0.32746981     0.01200
C1509       C  0.65006372  0.15303454  0.34473823     0.40500
C1510       C  0.57983516  0.14922591  0.32405568     0.37100
C1511       C  0.59644687  0.13927468  0.44075791     0.36900
C1512       C  0.57566336  0.08480578  0.33485483     0.37600
N1513       N  0.66422608  0.15384353  0.35098521    -0.43200
N1514       N  0.56548613  0.14895398  0.32166876    -0.43600
N1515       N  0.57145537  0.07400409  0.31237782    -0.41000
N1516       N  0.60054826  0.15042946  0.46208922    -0.42400
H1517       H  0.57409786  0.11689558  0.46303679     0.13800
H1518       H  0.59750008  0.10770245  0.31234677     0.10200
H1519       H  0.63073597  0.12825061  0.36853426     0.11300
H1520       H  0.59899553  0.17345633  0.29722127     0.17100
C1521       C  0.36611602  0.84053765  0.66503274    -0.01100
C1522       C  0.38006097  0.83906536  0.63676426     0.07500
C1523       C  0.38324767  0.82392543  0.61580644    -0.07100
C1524       C  0.37324320  0.81018402  0.62375596     0.04900
C1525       C  0.35968932  0.81137005  0.65360172    -0.14300
C1526       C  0.35598787  0.82674923  0.67300013    -0.07600
C1527       C  0.39257152  0.85239404  0.63132714     0.05900
C1528       C  0.40847099  0.84968757  0.64867296    -0.08700
C1529       C  0.42153104  0.86049669  0.63968988     0.00900
C1530       C  0.41895566  0.87426977  0.61179712     0.00700
C1531       C  0.40275747  0.87758573  0.59664165    -0.12300
C1532       C  0.38957062  0.86676871  0.60628166     0.01200
C1533       C  0.43738970  0.85727861  0.66039950     0.40500
C1534       C  0.37323881  0.87032883  0.58904161     0.37100
C1535       C  0.36239619  0.85582912  0.68758562     0.36900
C1536       C  0.37704146  0.79509922  0.60012496     0.37600
N1537       N  0.45005147  0.85476225  0.67725726    -0.43200
N1538       N  0.36007358  0.87319714  0.57569389    -0.43600
N1539       N  0.38004746  0.78303376  0.58108701    -0.41000
N1540       N  0.35939041  0.86811772  0.70553499    -0.42400
H1541       H  0.34555468  0.82785418  0.69569013     0.13800
H1542       H  0.39384936  0.82277564  0.59366067     0.10200
H1543       H  0.41075022  0.83885170  0.66879038     0.11300
H1544       H  0.40052083  0.88825764  0.57592286     0.17100
C1545       C  0.49746570  0.97435170  0.54027024    -0.01100
C1546       C  0.48706466  0.98521407  0.51648086     0.07500
C1547       C  0.47060686  0.98040635  0.50777012    -0.07100
C1548       C  0.46450062  0.96509433  0.52197160     0.04900
C1549       C  0.47503522  0.95410030  0.54509948    -0.14300
C1550       C  0.49143866  0.95903949  0.55407728    -0.07600
C1551       C  0.49328891  0.00136159  0.49947354     0.05900
C1552       C  0.50757630  0.00166777  0.47249882    -0.08700
C1553       C  0.51426531  0.01656720  0.45725270     0.00900
C1554       C  0.50635221  0.03164347  0.46789548     0.00700
C1555       C  0.49173585  0.03126772  0.49369801    -0.12300
C1556       C  0.48528801  0.01640674  0.50980453     0.01200
C1557       C  0.52911041  0.01589983  0.43033316     0.40500
C1558       C  0.47081584  0.01703137  0.53825617     0.37100
C1559       C  0.51439132  0.97859958  0.55126357     0.36900
C1560       C  0.44764254  0.96082037  0.51053156     0.37600
N1561       N  0.54104035  0.01525501  0.40885347    -0.43200
N1562       N  0.45920356  0.01753667  0.56098165    -0.43600
N1563       N  0.43411097  0.95751651  0.50116090    -0.41000
N1564       N  0.52799167  0.98190372  0.55989218    -0.42400
H1565       H  0.49972234  0.95083419  0.57185148     0.13800
H1566       H  0.46257524  0.98852074  0.48891829     0.10200
H1567       H  0.51361776  0.99016561  0.46348154     0.11300
H1568       H  0.48554118  0.04270651  0.50255378     0.17100
C1569       C  0.39554658  0.15627763  0.83841128    -0.01100
C1570       C  0.39074521  0.14262246  0.86415011     0.07500
C1571       C  0.37387811  0.14041659  0.87429069    -0.07100
C1572       C  0.36185974  0.15186504  0.86029586     0.04900
C1573       C  0.36666412  0.16575002  0.83497266    -0.14300
C1574       C  0.38357531  0.16760206  0.82397121    -0.07600
C1575       C  0.40336776  0.13122943  0.88308146     0.05900
C1576       C  0.41381197  0.13709558  0.91677535    -0.08700
C1577       C  0.42678818  0.12737248  0.93325244     0.00900
C1578       C  0.42956460  0.11138566  0.91579829     0.00700
C1579       C  0.41858168  0.10522680  0.88351888    -0.12300
C1580       C  0.40558476  0.11502548  0.86702214     0.01200
C1581       C  0.43695181  0.13407468  0.96839577     0.40500
C1582       C  0.39516210  0.10851313  0.83223199     0.37100
C1583       C  0.41275962  0.15900210  0.82687691     0.36900
C1584       C  0.34494838  0.14957959  0.87502471     0.37600
N1585       N  0.44508593  0.13939565  0.99663602    -0.43200
N1586       N  0.38679864  0.10331788  0.80431191    -0.43600
N1587       N  0.33142541  0.14777549  0.88720337    -0.41000
N1588       N  0.42656948  0.16115091  0.81782071    -0.42400
H1589       H  0.38755743  0.17812790  0.80463887     0.13800
H1590       H  0.37018266  0.13003063  0.89456786     0.10200
H1591       H  0.41196192  0.14946004  0.92973055     0.11300
H1592       H  0.42058126  0.09301545  0.86972749     0.17100
C1593       C  0.50753637  0.10110152  0.13809361    -0.01100
C1594       C  0.49471478  0.10230841  0.16998074     0.07500
C1595       C  0.47821212  0.10342360  0.15570816    -0.07100
C1596       C  0.47421234  0.10224895  0.11061302     0.04900
C1597       C  0.48696438  0.10023457  0.07844299    -0.14300
C1598       C  0.50360551  0.10031080  0.09267681    -0.07600
C1599       C  0.49792650  0.09993417  0.21811981     0.05900
C1600       C  0.50518182  0.11253921  0.24354083    -0.08700
C1601       C  0.50870281  0.11015042  0.28880955     0.00900
C1602       C  0.50506073  0.09484907  0.30895276     0.00700
C1603       C  0.49751092  0.08245565  0.28347493    -0.12300
C1604       C  0.49387538  0.08488586  0.23865679     0.01200
C1605       C  0.51687606  0.12319616  0.31301697     0.40500
C1606       C  0.48651327  0.07149613  0.21391175     0.37100
C1607       C  0.52466532  0.09932480  0.15146027     0.36900
C1608       C  0.45683116  0.10256657  0.09876922     0.37600
N1609       N  0.52343604  0.13365200  0.33240917    -0.43200
N1610       N  0.48060824  0.06078727  0.19403311    -0.43600
N1611       N  0.44286913  0.10270643  0.08963004    -0.41000
N1612       N  0.53836494  0.09779472  0.16234873    -0.42400
H1613       H  0.51351386  0.09862759  0.06859614     0.13800
H1614       H  0.46833588  0.10431747  0.18020543     0.10200
H1615       H  0.50830252  0.12413108  0.22784059     0.11300
H1616       H  0.49472880  0.07064121  0.29846873     0.17100
C1617       C  0.49635994  0.10326202  0.63469261    -0.01100
C1618       C  0.50469527  0.09381043  0.66700478     0.07500
C1619       C  0.51777073  0.08350064  0.65377058    -0.07100
C1620       C  0.52255461  0.08224844  0.60924775     0.04900
C1621       C  0.51421987  0.09163028  0.57634042    -0.14300
C1622       C  0.50118539  0.10215704  0.58982598    -0.07600
C1623       C  0.49936200  0.09320131  0.71433889     0.05900
C1624       C  0.49269746  0.07843434  0.73025612    -0.08700
C1625       C  0.48870293  0.07649792  0.77514769     0.00900
C1626       C  0.49163172  0.08949338  0.80575407     0.00700
C1627       C  0.49835086  0.10433871  0.78970527    -0.12300
C1628       C  0.50205111  0.10632127  0.74431492     0.01200
C1629       C  0.48193524  0.06082440  0.78870696     0.40500
C1630       C  0.50867784  0.12182691  0.72915120     0.37100
C1631       C  0.48241355  0.11360553  0.64657029     0.36900
C1632       C  0.53552868  0.07052563  0.59860898     0.37600
N1633       N  0.47643354  0.04829531  0.79949942    -0.43200
N1634       N  0.51384101  0.13426711  0.71658542    -0.43600
N1635       N  0.54586974  0.06107275  0.59015403    -0.41000
N1636       N  0.47123409  0.12189030  0.65619668    -0.42400
H1637       H  0.49451661  0.10929227  0.56522596     0.13800
H1638       H  0.52404954  0.07604234  0.67846611     0.10200
H1639       H  0.49071896  0.06827115  0.70734756     0.11300
H1640       H  0.50044670  0.11450539  0.81246262     0.17100
C1641       C  0.48319212  0.88098781  0.26271810    -0.01100
C1642       C  0.49051592  0.89004305  0.29766236     0.07500
C1643       C  0.50364117  0.90071814  0.28788523    -0.07100
C1644       C  0.50939321  0.90274832  0.24431205     0.04900
C1645       C  0.50194722  0.89390886  0.20868511    -0.14300
C1646       C  0.48885987  0.88301743  0.21877160    -0.07600
C1647       C  0.48467004  0.88900237  0.34471511     0.05900
C1648       C  0.49562597  0.88322630  0.37742688    -0.08700
C1649       C  0.49134118  0.88369760  0.42270013     0.00900
C1650       C  0.47577975  0.89024262  0.43625296     0.00700
C1651       C  0.46467776  0.89560973  0.40310152    -0.12300
C1652       C  0.46898613  0.89509489  0.35792539     0.01200
C1653       C  0.50332853  0.87761640  0.45426295     0.40500
C1654       C  0.45741578  0.90164055  0.32587655     0.37100
C1655       C  0.47009654  0.86930677  0.27143181     0.36900
C1656       C  0.52295721  0.91411781  0.23781373     0.37600
N1657       N  0.51294239  0.87270904  0.47952906    -0.43200
N1658       N  0.44816635  0.90680879  0.30002818    -0.43600
N1659       N  0.53384420  0.92322896  0.23289143    -0.41000
N1660       N  0.45959234  0.85997748  0.27870914    -0.42400
H1661       H  0.48308502  0.87596817  0.19236137     0.13800
H1662       H  0.50933700  0.90769647  0.31460684     0.10200
H1663       H  0.50774136  0.87858126  0.36752137     0.11300
H1664       H  0.45271580  0.90075518  0.41245909     0.17100
C1665       C  0.48713633  0.90391294  0.78277051    -0.01100
C1666       C  0.49547535  0.88932617  0.79489475     0.07500
C1667       C  0.49883454  0.87744416  0.76202638    -0.07100
C1668       C  0.49372957  0.87981709  0.71773359     0.04900
C1669       C  0.48524878  0.89446940  0.70551602    -0.14300
C1670       C  0.48219765  0.90638832  0.73868015    -0.07600
C1671       C  0.50071946  0.88662805  0.84189799     0.05900
C1672       C  0.48867465  0.88275789  0.87400005    -0.08700
C1673       C  0.49245977  0.88298446  0.91960215     0.00900
C1674       C  0.50860712  0.88740858  0.93402053     0.00700
C1675       C  0.52085797  0.89033052  0.90138990    -0.12300
C1676       C  0.51707375  0.88989746  0.85587716     0.01200
C1677       C  0.47926321  0.87940955  0.95058344     0.40500
C1678       C  0.52998160  0.89361426  0.82409780     0.37100
C1679       C  0.48346842  0.91652649  0.81533432     0.36900
C1680       C  0.49675825  0.86670752  0.68619398     0.37600
N1681       N  0.46863336  0.87649613  0.97526485    -0.43200
N1682       N  0.54030413  0.89654019  0.79851184    -0.43600
N1683       N  0.49911356  0.85614925  0.66099001    -0.41000
N1684       N  0.48053605  0.92652738  0.84172305    -0.42400
H1685       H  0.47574550  0.91770899  0.73032194     0.13800
H1686       H  0.50522172  0.86617210  0.77117055     0.10200
H1687       H  0.47606134  0.88017658  0.86339980     0.11300
H1688       H  0.53339597  0.89348595  0.91140887     0.17100
C1689       C  0.48139000  0.00961509  0.02438477    -0.01100
C1690       C  0.49636390  0.00190950  0.01104155     0.07500
C1691       C  0.50672630  0.01003066  0.98066556    -0.07100
C1692       C  0.50248578  0.02559047  0.96386804     0.04900
C1693       C  0.48757691  0.03341638  0.97764465    -0.14300
C1694       C  0.47713690  0.02517224  0.00766889    -0.07600
C1695       C  0.50080433  0.98489261  0.02563188     0.05900
C1696       C  0.49011156  0.97193765  0.01453292    -0.08700
C1697       C  0.49389778  0.95562973  0.02568002     0.00900
C1698       C  0.50893283  0.95183879  0.04801298     0.00700
C1699       C  0.51966144  0.96487424  0.05926511    -0.12300
C1700       C  0.51564821  0.98129045  0.04866017     0.01200
C1701       C  0.48225645  0.94306734  0.01217183     0.40500
C1702       C  0.52667399  0.99428997  0.06280762     0.37100
C1703       C  0.47032172  0.00194218  0.05588881     0.36900
C1704       C  0.51333174  0.03285964  0.93111564     0.37600
N1705       N  0.47286414  0.93305966  0.00134534    -0.43200
N1706       N  0.53542364  0.00475974  0.07430663    -0.43600
N1707       N  0.52199541  0.03860592  0.90467008    -0.41000
N1708       N  0.46142064  0.99578416  0.08105218    -0.42400
H1709       H  0.46574201  0.03103942  0.01888200     0.13800
H1710       H  0.51802657  0.00401469  0.96930622     0.10200
H1711       H  0.47878240  0.97457714  0.99638334     0.11300
H1712       H  0.53112715  0.96227125  0.07677772     0.17100
C1713       C  0.58746783  0.65677659  0.68324907    -0.01100
C1714       C  0.59006109  0.64427888  0.65125788     0.07500
C1715       C  0.60560850  0.64312004  0.63017671    -0.07100
C1716       C  0.61826093  0.65453025  0.63915721     0.04900
C1717       C  0.61543241  0.66748964  0.66981542    -0.14300
C1718       C  0.60005962  0.66821011  0.69213211    -0.07600
C1719       C  0.57632879  0.63325852  0.63646445     0.05900
C1720       C  0.56219543  0.64034920  0.61715672    -0.08700
C1721       C  0.54916624  0.63058208  0.60124050     0.00900
C1722       C  0.55027100  0.61313421  0.60348229     0.00700
C1723       C  0.56448429  0.60607590  0.62290271    -0.12300
C1724       C  0.57734313  0.61595179  0.63969063     0.01200
C1725       C  0.53494093  0.63899284  0.58274453     0.40500
C1726       C  0.59116679  0.60809903  0.66161208     0.37100
C1727       C  0.57193489  0.65820894  0.70712462     0.36900
C1728       C  0.63351411  0.65326025  0.61407141     0.37600
N1729       N  0.52355494  0.64585101  0.56827750    -0.43200
N1730       N  0.60220928  0.60183603  0.67946829    -0.43600
N1731       N  0.64568769  0.65218645  0.59371451    -0.41000
N1732       N  0.55949012  0.65937710  0.72624323    -0.42400
H1733       H  0.59772276  0.67797409  0.71605632     0.13800
H1734       H  0.60763149  0.63365023  0.60521135     0.10200
H1735       H  0.56137923  0.65365107  0.61432075     0.11300
H1736       H  0.56543022  0.59279576  0.62588249     0.17100
C1737       C  0.90466596  0.83851080  0.90427348    -0.01100
C1738       C  0.88928316  0.84458105  0.88929890     0.07500
C1739       C  0.88655027  0.86167525  0.88865962    -0.07100
C1740       C  0.89915516  0.87273561  0.90144323     0.04900
C1741       C  0.91480927  0.86661978  0.91547985    -0.14300
C1742       C  0.91711156  0.84943094  0.91744873    -0.07600
C1743       C  0.87671919  0.83307224  0.87064922     0.05900
C1744       C  0.86471915  0.82609576  0.89868472    -0.08700
C1745       C  0.85468400  0.81301706  0.88393043     0.00900
C1746       C  0.85660048  0.80675064  0.84027354     0.00700
C1747       C  0.86825948  0.81417980  0.81193496    -0.12300
C1748       C  0.87822151  0.82723463  0.82669053     0.01200
C1749       C  0.84369222  0.80528625  0.91551897     0.40500
C1750       C  0.89054977  0.83395925  0.79696469     0.37100
C1751       C  0.90824455  0.82105958  0.90456411     0.36900
C1752       C  0.89582085  0.89016913  0.89808332     0.37600
N1753       N  0.83500437  0.79904231  0.94106375    -0.43200
N1754       N  0.90050298  0.83940964  0.77347233    -0.43600
N1755       N  0.89308201  0.90413322  0.89519447    -0.41000
N1756       N  0.91118013  0.80709301  0.90449913    -0.42400
H1757       H  0.92891439  0.84437054  0.92819864     0.13800
H1758       H  0.87474783  0.86638074  0.87679372     0.10200
H1759       H  0.86379157  0.83030990  0.93283542     0.11300
H1760       H  0.86994563  0.80943598  0.77850101     0.17100
C1761       C  0.75356216  0.74945914  0.76765124    -0.01100
C1762       C  0.75077958  0.73427695  0.74599813     0.07500
C1763       C  0.76439402  0.72413936  0.73591253    -0.07100
C1764       C  0.78063439  0.72888405  0.74683544     0.04900
C1765       C  0.78352113  0.74408545  0.76907700    -0.14300
C1766       C  0.76978069  0.75421774  0.77900614    -0.07600
C1767       C  0.73383473  0.72898895  0.73214220     0.05900
C1768       C  0.72588755  0.73741486  0.69761126    -0.08700
C1769       C  0.70985262  0.73301849  0.68384382     0.00900
C1770       C  0.70149664  0.71969554  0.70431502     0.00700
C1771       C  0.70969612  0.71099629  0.73817665    -0.12300
C1772       C  0.72561442  0.71567167  0.75254939     0.01200
C1773       C  0.70239446  0.74236724  0.64836363     0.40500
C1774       C  0.73289324  0.70729521  0.79000286     0.37100
C1775       C  0.73989644  0.76022134  0.77915264     0.36900
C1776       C  0.79400997  0.71809196  0.73306655     0.37600
N1777       N  0.69651189  0.74996144  0.61997179    -0.43200
N1778       N  0.73869974  0.70074969  0.82033501    -0.43600
N1779       N  0.80463168  0.70939255  0.72168076    -0.41000
N1780       N  0.72890194  0.76881084  0.78833133    -0.42400
H1781       H  0.77167037  0.76587988  0.79593504     0.13800
H1782       H  0.76232309  0.71256450  0.71865558     0.10200
H1783       H  0.73221485  0.74758092  0.68159025     0.11300
H1784       H  0.70335830  0.70099376  0.75487608     0.17100
C1785       C  0.59143829  0.86545017  0.13721245    -0.01100
C1786       C  0.59333249  0.84981799  0.11716543     0.07500
C1787       C  0.58209120  0.84499315  0.08407939    -0.07100
C1788       C  0.56870636  0.85516909  0.07213389     0.04900
C1789       C  0.56646967  0.87065531  0.09312128    -0.14300
C1790       C  0.57821435  0.87579977  0.12473868    -0.07600
C1791       C  0.60553322  0.83746524  0.13385293     0.05900
C1792       C  0.60116235  0.82817033  0.17117237    -0.08700
C1793       C  0.61107383  0.81499139  0.18534597     0.00900
C1794       C  0.62579721  0.81083521  0.16203433     0.00700
C1795       C  0.63069732  0.82078449  0.12613933    -0.12300
C1796       C  0.62064861  0.83397105  0.11181426     0.01200
C1797       C  0.60578236  0.80588922  0.22395835     0.40500
C1798       C  0.62592823  0.84358422  0.07413813     0.37100
C1799       C  0.60263064  0.87087082  0.17162024     0.36900
C1800       C  0.55745381  0.84942400  0.03816868     0.37600
N1801       N  0.60157520  0.79857887  0.25490954    -0.43200
N1802       N  0.63024034  0.85132506  0.04406038    -0.43600
N1803       N  0.54841190  0.84487397  0.01094985    -0.41000
N1804       N  0.61160268  0.87519540  0.19925489    -0.42400
H1805       H  0.57663882  0.88760746  0.14121797     0.13800
H1806       H  0.58344857  0.83296371  0.06864858     0.10200
H1807       H  0.58965780  0.83093517  0.18855801     0.11300
H1808       H  0.64196918  0.81780206  0.10798312     0.17100
C1809       C  0.62593263  0.73021235  0.99309056    -0.01100
C1810       C  0.63443485  0.73805014  0.95796887     0.07500
C1811       C  0.64507273  0.75116932  0.96784432    -0.07100
C1812       C  0.64787673  0.75617191  0.01165950     0.04900
C1813       C  0.64044616  0.74751087  0.04744913    -0.14300
C1814       C  0.62920939  0.73475490  0.03735989    -0.07600
C1815       C  0.63316735  0.73260640  0.91071050     0.05900
C1816       C  0.62865168  0.74412688  0.87808286    -0.08700
C1817       C  0.63005035  0.74039600  0.83260915     0.00900
C1818       C  0.63592374  0.72470733  0.81897432     0.00700
C1819       C  0.63971266  0.71300541  0.85189946    -0.12300
C1820       C  0.63861108  0.71684301  0.89711930     0.01200
C1821       C  0.62620571  0.75323062  0.80118893     0.40500
C1822       C  0.64433202  0.70473507  0.92865925     0.37100
C1823       C  0.61339468  0.71793598  0.98433250     0.36900
C1824       C  0.65794539  0.77068715  0.01814590     0.37600
N1825       N  0.62318133  0.76364331  0.77630071    -0.43200
N1826       N  0.64893067  0.69498835  0.95378123    -0.43600
N1827       N  0.66583824  0.78246441  0.02285667    -0.41000
N1828       N  0.60325834  0.70820377  0.97709360    -0.42400
H1829       H  0.62288073  0.72836585  0.06402214     0.13800
H1830       H  0.65133481  0.75753770  0.94097952     0.10200
H1831       H  0.62463429  0.75634695  0.88826050     0.11300
H1832       H  0.64423828  0.70088650  0.84242394     0.17100
C1833       C  0.64534786  0.72195919  0.46888910    -0.01100
C1834       C  0.63413047  0.73450575  0.45672259     0.07500
C1835       C  0.62492974  0.74255219  0.49010815    -0.07100
C1836       C  0.62700826  0.73851411  0.53514451     0.04900
C1837       C  0.63853267  0.72612636  0.54748868    -0.14300
C1838       C  0.64737829  0.71785654  0.51365373    -0.07600
C1839       C  0.63322493  0.74041646  0.40995597     0.05900
C1840       C  0.62690735  0.73014911  0.37640394    -0.08700
C1841       C  0.62784588  0.73462842  0.33137423     0.00900
C1842       C  0.63540485  0.74973305  0.31918925     0.00700
C1843       C  0.64094159  0.76026135  0.35333374    -0.12300
C1844       C  0.63999229  0.75576452  0.39805199     0.01200
C1845       C  0.62144911  0.72326925  0.29868753     0.40500
C1846       C  0.64700614  0.76664426  0.43105675     0.37100
C1847       C  0.65556522  0.71367182  0.43620138     0.36900
C1848       C  0.61710688  0.74726578  0.56760901     0.37600
N1849       N  0.61625935  0.71412135  0.27263006    -0.43200
N1850       N  0.65265324  0.77528396  0.45766031    -0.43600
N1851       N  0.60912225  0.75431749  0.59348274    -0.41000
N1852       N  0.66380710  0.70706015  0.41007513    -0.42400
H1853       H  0.65628532  0.70832038  0.52214704     0.13800
H1854       H  0.61630732  0.75227410  0.48092228     0.10200
H1855       H  0.62153794  0.71813517  0.38557751     0.11300
H1856       H  0.64673188  0.77205590  0.34501209     0.17100
C1857       C  0.87383681  0.64022024  0.37431978    -0.01100
C1858       C  0.89090765  0.64171867  0.36355788     0.07500
C1859       C  0.89572893  0.65427559  0.33430411    -0.07100
C1860       C  0.88432171  0.66593745  0.31874094     0.04900
C1861       C  0.86736431  0.66493510  0.33110372    -0.14300
C1862       C  0.86226606  0.65169908  0.35782583    -0.07600
C1863       C  0.90411291  0.63073986  0.38263700     0.05900
C1864       C  0.90299040  0.61352595  0.37784833    -0.08700
C1865       C  0.91590402  0.60304874  0.39197030     0.00900
C1866       C  0.93049343  0.60977655  0.41099540     0.00700
C1867       C  0.93132055  0.62695013  0.41690419    -0.12300
C1868       C  0.91843120  0.63735894  0.40319352     0.01200
C1869       C  0.91405549  0.58557387  0.38454935     0.40500
C1870       C  0.92041166  0.65486730  0.41027265     0.37100
C1871       C  0.86790108  0.62747298  0.40358090     0.36900
C1872       C  0.89050990  0.67879659  0.29011448     0.37600
N1873       N  0.91245906  0.57157836  0.37844974    -0.43200
N1874       N  0.92216125  0.66888870  0.41557017    -0.43600
N1875       N  0.89555354  0.68911268  0.26736832    -0.41000
N1876       N  0.86302108  0.61722652  0.42679787    -0.42400
H1877       H  0.84931592  0.65070865  0.36747519     0.13800
H1878       H  0.90864267  0.65519415  0.32421425     0.10200
H1879       H  0.89222377  0.60825033  0.36159407     0.11300
H1880       H  0.94227734  0.63240343  0.43180406     0.17100
C1881       C  0.85546712  0.73961417  0.48890107    -0.01100
C1882       C  0.84290730  0.73802458  0.52132426     0.07500
C1883       C  0.82725754  0.73219608  0.50838564    -0.07100
C1884       C  0.82408326  0.72754959  0.46425674     0.04900
C1885       C  0.83681569  0.72864241  0.43172684    -0.14300
C1886       C  0.85234347  0.73499066  0.44464519    -0.07600
C1887       C  0.84561918  0.74228862  0.56902614     0.05900
C1888       C  0.84398494  0.75871413  0.58287366    -0.08700
C1889       C  0.84413940  0.76293087  0.62818493     0.00900
C1890       C  0.84601283  0.75052124  0.66095925     0.00700
C1891       C  0.84858116  0.73417267  0.64663729    -0.12300
C1892       C  0.84830221  0.73000732  0.60126036     0.01200
C1893       C  0.84210681  0.78010127  0.63979251     0.40500
C1894       C  0.85035124  0.71297004  0.58840015     0.37100
C1895       C  0.87180285  0.74548655  0.50046098     0.36900
C1896       C  0.80752595  0.72200371  0.45354851     0.37600
N1897       N  0.84045177  0.79387845  0.64890021    -0.43200
N1898       N  0.85200114  0.69933693  0.57783886    -0.43600
N1899       N  0.79416907  0.71766170  0.44555585    -0.41000
N1900       N  0.88495441  0.75015986  0.50940585    -0.42400
H1901       H  0.86229570  0.73582990  0.42041992     0.13800
H1902       H  0.81747235  0.73119281  0.53307332     0.10200
H1903       H  0.84201869  0.76821928  0.55820674     0.11300
H1904       H  0.85005964  0.72447084  0.67096499     0.17100
C1905       C  0.84629865  0.70705682  0.08449981    -0.01100
C1906       C  0.85025086  0.72298856  0.06913651     0.07500
C1907       C  0.85391750  0.73529150  0.10059005    -0.07100
C1908       C  0.85284509  0.73218250  0.14651070     0.04900
C1909       C  0.84785724  0.71645534  0.16195024    -0.14300
C1910       C  0.84516245  0.70394484  0.13019594    -0.07600
C1911       C  0.84883935  0.72733027  0.02090738     0.05900
C1912       C  0.83350871  0.72490171  0.99973833    -0.08700
C1913       C  0.83119418  0.72900342  0.95505163     0.00900
C1914       C  0.84429331  0.73608183  0.93029051     0.00700
C1915       C  0.85981625  0.73816577  0.95099663    -0.12300
C1916       C  0.86215227  0.73391653  0.99593825     0.01200
C1917       C  0.81529459  0.72539128  0.93516235     0.40500
C1918       C  0.87828670  0.73637298  0.01567805     0.37100
C1919       C  0.84298179  0.69374616  0.05381055     0.36900
C1920       C  0.85639437  0.74557582  0.17664499     0.37600
N1921       N  0.80257428  0.72233045  0.91933608    -0.43200
N1922       N  0.89120573  0.73834775  0.03161870    -0.43600
N1923       N  0.85928526  0.75636012  0.20064448    -0.41000
N1924       N  0.84023669  0.68319573  0.02894866    -0.42400
H1925       H  0.84162287  0.69170585  0.14094163     0.13800
H1926       H  0.85696506  0.74758806  0.08924139     0.10200
H1927       H  0.82318175  0.71984334  0.01843289     0.11300
H1928       H  0.86997142  0.74364538  0.93253745     0.17100
C1929       C  0.75270283  0.71835583  0.28986799    -0.01100
C1930       C  0.74846239  0.72321336  0.24630999     0.07500
C1931       C  0.76041827  0.72174359  0.21248908    -0.07100
C1932       C  0.77653579  0.71611546  0.22177384     0.04900
C1933       C  0.78091125  0.71173455  0.26555661    -0.14300
C1934       C  0.76877873  0.71249135  0.29903987    -0.07600
C1935       C  0.73193178  0.73056176  0.23559938     0.05900
C1936       C  0.73099154  0.74727031  0.22379454    -0.08700
C1937       C  0.71570138  0.75474104  0.21338585     0.00900
C1938       C  0.70093318  0.74527573  0.21334707     0.00700
C1939       C  0.70200694  0.72853030  0.22535509    -0.12300
C1940       C  0.71720533  0.72121687  0.23675299     0.01200
C1941       C  0.71566944  0.77208269  0.20297512     0.40500
C1942       C  0.71734729  0.70406592  0.24934391     0.37100
C1943       C  0.74110512  0.72031747  0.32614530     0.36900
C1944       C  0.78845541  0.71497144  0.18591264     0.37600
N1945       N  0.71575007  0.78602141  0.19498513    -0.43200
N1946       N  0.71736692  0.69036137  0.25983227    -0.43600
N1947       N  0.79803954  0.71397203  0.15729774    -0.41000
N1948       N  0.73178138  0.72197219  0.35514478    -0.42400
H1949       H  0.77213907  0.70942753  0.33288102     0.13800
H1950       H  0.75722799  0.72531170  0.17889422     0.10200
H1951       H  0.74226949  0.75456291  0.22322557     0.11300
H1952       H  0.69086208  0.72105255  0.22628814     0.17100
loop_ 
_geom_bond_atom_site_label_1 
_geom_bond_atom_site_label_2 
_geom_bond_distance 
_geom_bond_site_symmetry_2 
_ccdc_geom_bond_type 
O1            C4   1.272       .  A
O1           Cd6   2.511       .  S
C2           O11   1.268       .  A
C2            O7   1.273       .  A
C2         C1909   1.502       .  S
O3            C9   1.272       .  A
O3           Cd6   2.517       .  S
C4           O12   1.265       .  A
C4         C1885   1.496       .  S
C5           O10   1.272       .  A
C5            O8   1.265       .  A
C5         C1933   1.480       .  S
Cd6          O13   2.424       .  S
Cd6          O12   2.467       .  S
Cd6          O11   2.452       .  S
Cd6           O7   2.509       .  S
Cd6          O10   2.510       .  S
Cd6           O8   2.427       .  S
C9           O13   1.264       .  A
C9         C1861   1.491       .  S
O14          C17   1.272       .  A
O14         Cd19   2.520       .  S
C15          O24   1.267       .  A
C15          O20   1.273       .  A
C15        C1842   1.497       .  S
O16          C22   1.272       .  A
O16         Cd19   2.513       .  S
C17          O25   1.264       .  A
C17        C1813   1.496       .  S
C18          O23   1.271       .  A
C18          O21   1.265       .  A
C18        C1794   1.490       .  S
Cd19         O26   2.440       .  S
Cd19         O25   2.425       .  S
Cd19         O24   2.429       .  S
Cd19         O20   2.512       .  S
Cd19         O23   2.521       .  S
Cd19         O21   2.434       .  S
C22          O26   1.266       .  A
C22        C1938   1.497       .  S
O27          C30   1.272       .  A
O27         Cd32   2.538       .  S
C28          O37   1.266       .  A
C28          O33   1.274       .  A
C28        C1890   1.499       .  S
O29          C35   1.273       .  A
O29         Cd32   2.501       .  S
C30          O38   1.263       .  A
C30        C1914   1.492       .  S
C31          O36   1.270       .  A
C31          O34   1.265       .  A
C31        C1746   1.487       .  S
Cd32         O39   2.437       .  S
Cd32         O38   2.440       .  S
Cd32         O37   2.447       .  S
Cd32         O33   2.513       .  S
Cd32         O36   2.508       .  S
Cd32         O34   2.457       .  S
C35          O39   1.265       .  A
C35        C1765   1.495       .  S
O40          C43   1.272       .  A
O40         Cd45   2.501       .  S
C41          O50   1.266       .  A
C41          O46   1.273       .  A
C41        C1818   1.493       .  S
O42          C48   1.273       .  A
O42         Cd45   2.499       .  S
C43          O51   1.267       .  A
C43        C1837   1.494       .  S
C44          O49   1.272       .  A
C44          O47   1.266       .  A
C44        C1770   1.491       .  S
Cd45         O52   2.429       .  S
Cd45         O51   2.427       .  S
Cd45         O50   2.408       .  S
Cd45         O46   2.505       .  S
Cd45         O49   2.506       .  S
Cd45         O47   2.452       .  S
C48          O52   1.266       .  A
C48        C1717   1.488       .  S
O53          C56   1.274       .  A
O53         Cd58   2.536       .  S
C54          O63   1.267       .  A
C54          O59   1.274   1_556  A
C54        C1674   1.501       .  S
O55          C61   1.273       .  A
O55         Cd58   2.515       .  S
C56          O64   1.264       .  A
C56        C1645   1.502       .  S
C57          O62   1.272       .  A
C57          O60   1.267       .  A
C57        C1789   1.489       .  S
Cd58         O65   2.431       .  S
Cd58         O64   2.426       .  S
Cd58         O63   2.453   1_554  S
Cd58         O59   2.517       .  S
Cd58         O62   2.502       .  S
Cd58         O60   2.448       .  S
C61          O65   1.265       .  A
C61        C1698   1.494       .  S
O66          C69   1.274   1_556  A
O66         Cd71   2.510       .  S
C67          O76   1.264       .  A
C67          O72   1.274       .  A
C67        C1626   1.492       .  S
O68          C74   1.271       .  A
O68         Cd71   2.480       .  S
C69          O77   1.265       .  A
C69        C1597   1.489       .  S
C70          O75   1.271       .  A
C70          O73   1.266       .  A
C70        C1578   1.485       .  S
Cd71         O78   2.449       .  S
Cd71         O77   2.415   1_556  S
Cd71         O76   2.408       .  S
Cd71         O72   2.523       .  S
Cd71         O75   2.488       .  S
Cd71         O73   2.424       .  S
C74          O78   1.266       .  A
C74        C1693   1.489       .  S
O79          C82   1.271       .  A
O79         Cd84   2.497       .  S
C80          O89   1.268       .  A
C80          O85   1.272       .  A
C80        C1669   1.499       .  S
O81          C87   1.272       .  A
O81         Cd84   2.504       .  S
C82          O90   1.266       .  A
C82        C1650   1.498       .  S
C83          O88   1.272       .  A
C83          O86   1.265       .  A
C83        C1530   1.489       .  S
Cd84         O91   2.421       .  S
Cd84         O90   2.458       .  S
Cd84         O89   2.457       .  S
Cd84         O85   2.508       .  S
Cd84         O88   2.522       .  S
Cd84         O86   2.417       .  S
C87          O91   1.265       .  A
C87        C1549   1.491       .  S
O92          C95   1.270       .  A
O92         Cd97   2.503       .  S
C93         O102   1.265       .  A
C93          O98   1.273       .  A
C93        C1621   1.493       .  S
O94         C100   1.273       .  A
O94         Cd97   2.491       .  S
C95         O103   1.264       .  A
C95        C1602   1.482       .  S
C96         O101   1.270       .  A
C96          O99   1.265       .  A
C96        C1501   1.485       .  S
Cd97        O104   2.434       .  S
Cd97        O103   2.419       .  S
Cd97        O102   2.402       .  S
Cd97         O98   2.503       .  S
Cd97        O101   2.507       .  S
Cd97         O99   2.428       .  S
C100        O104   1.266       .  A
C100       C1554   1.490       .  S
O105        C108   1.274       .  A
O105       Cd110   2.492       .  S
C106        O115   1.265       .  A
C106        O111   1.273       .  A
C106       C1453   1.498       .  S
O107        C113   1.273       .  A
O107       Cd110   2.506       .  S
C108        O116   1.267       .  A
C108       C1429   1.496       .  S
C109        O114   1.272       .  A
C109        O112   1.267       .  A
C109       C1405   1.490       .  S
Cd110       O117   2.413       .  S
Cd110       O116   2.429       .  S
Cd110       O115   2.430       .  S
Cd110       O111   2.524       .  S
Cd110       O114   2.480       .  S
Cd110       O112   2.409       .  S
C113        O117   1.267       .  A
C113       C1482   1.493       .  S
O118        C121   1.273       .  A
O118       Cd123   2.522       .  S
C119        O128   1.266       .  A
C119        O124   1.272       .  A
C119       C1357   1.498       .  S
O120        C126   1.271       .  A
O120       Cd123   2.507       .  S
C121        O129   1.266       .  A
C121       C1386   1.502       .  S
C122        O127   1.271       .  A
C122        O125   1.267       .  A
C122       C1333   1.487       .  S
Cd123       O130   2.435       .  S
Cd123       O129   2.458       .  S
Cd123       O128   2.477       .  S
Cd123       O124   2.519       .  S
Cd123       O127   2.505       .  S
Cd123       O125   2.434       .  S
C126        O130   1.263       .  A
C126       C1477   1.488       .  S
O131        C134   1.273       .  A
O131       Cd136   2.509       .  S
C132        O141   1.263       .  A
C132        O137   1.273       .  A
C132       C1381   1.498       .  S
O133        C139   1.270       .  A
O133       Cd136   2.506       .  S
C134        O142   1.267       .  A
C134       C1362   1.495       .  S
C135        O140   1.272       .  A
C135        O138   1.266       .  A
C135       C1309   1.483       .  S
Cd136       O143   2.435       .  S
Cd136       O142   2.445       .  S
Cd136       O141   2.435       .  S
Cd136       O137   2.511       .  S
Cd136       O140   2.481       .  S
Cd136       O138   2.431       .  S
C139        O143   1.265       .  A
C139       C1285   1.479       .  S
O144        C147   1.271       .  A
O144       Cd149   2.529       .  S
C145        O154   1.265       .  A
C145        O150   1.271       .  A
C145       C1458   1.490       .  S
O146        C152   1.269       .  A
O146       Cd149   2.492       .  S
C147        O155   1.262       .  A
C147       C1434   1.499       .  S
C148        O153   1.269       .  A
C148        O151   1.267       .  A
C148       C1506   1.489       .  S
Cd149       O156   2.446       .  S
Cd149       O155   2.435       .  S
Cd149       O154   2.448       .  S
Cd149       O150   2.495       .  S
Cd149       O153   2.474       .  S
Cd149       O151   2.433       .  S
C152        O156   1.265       .  A
C152       C1314   1.488       .  S
O157        C160   1.272       .  A
O157       Cd162   2.517       .  S
C158        O167   1.266       .  A
C158        O163   1.273       .  A
C158       C1237   1.496       .  S
O159        C165   1.271       .  A
O159       Cd162   2.511       .  S
C160        O168   1.264       .  A
C160       C1213   1.491       .  S
C161        O166   1.271       .  A
C161        O164   1.265       .  A
C161       C1266   1.480       .  S
Cd162       O169   2.433       .  S
Cd162       O168   2.427       .  S
Cd162       O167   2.430       .  S
Cd162       O163   2.517       .  S
Cd162       O166   2.498       .  S
Cd162       O164   2.421       .  S
C165        O169   1.265       .  A
C165       C1194   1.498       .  S
O170        C173   1.272       .  A
O170       Cd175   2.492       .  S
C171        O180   1.264       .  A
C171        O176   1.272       .  A
C171       C1146   1.492       .  S
O172        C178   1.271       .  A
O172       Cd175   2.472       .  S
C173        O181   1.266       .  A
C173       C1170   1.492       .  S
C174        O179   1.271       .  A
C174        O177   1.267       .  A
C174       C1122   1.488       .  S
Cd175       O182   2.441       .  S
Cd175       O181   2.430       .  S
Cd175       O180   2.427       .  S
Cd175       O176   2.506       .  S
Cd175       O179   2.502       .  S
Cd175       O177   2.433       .  S
C178        O182   1.266       .  A
C178       C1261   1.489       .  S
O183        C186   1.274       .  A
O183       Cd188   2.507       .  S
C184        O193   1.264       .  A
C184        O189   1.272       .  A
C184       C1218   1.490       .  S
O185        C191   1.271       .  A
O185       Cd188   2.480       .  S
C186        O194   1.266       .  A
C186       C1242   1.492       .  S
C187        O192   1.272       .  A
C187        O190   1.265       .  A
C187       C1069   1.477       .  S
Cd188       O195   2.430       .  S
Cd188       O194   2.390       .  S
Cd188       O193   2.432       .  S
Cd188       O189   2.490       .  S
Cd188       O192   2.497       .  S
Cd188       O190   2.397       .  S
C191        O195   1.265       .  A
C191       C1098   1.486       .  S
O196        C199   1.273       .  A
O196       Cd201   2.532       .  S
C197        O206   1.265       .  A
C197        O202   1.275       .  A
C197       C1141   1.495       .  S
O198        C204   1.271       .  A
O198       Cd201   2.480       .  S
C199        O207   1.263       .  A
C199       C1165   1.498       .  S
C200        O205   1.270       .  A
C200        O203   1.267       .  A
C200       C1525   1.485       .  S
Cd201       O208   2.419       .  S
Cd201       O207   2.411       .  S
Cd201       O206   2.424       .  S
Cd201       O202   2.506       .  S
Cd201       O205   2.491       .  S
Cd201       O203   2.427       .  S
C204        O208   1.265       .  A
C204       C1093   1.479       .  S
O209        C212   1.271       .  A
O209       Cd214   2.509   1_556  S
C210        O219   1.265       .  A
C210        O215   1.271   1_455  A
C210        C997   1.489       .  S
O211        C217   1.270       .  A
O211       Cd214   2.495       .  S
C212        O220   1.265       .  A
C212       C1026   1.486       .  S
C213        O218   1.271       .  A
C213        O216   1.266       .  A
C213        C978   1.489       .  S
Cd214       O221   2.456   1_455  S
Cd214       O220   2.429   1_554  S
Cd214       O219   2.423       .  S
Cd214       O215   2.506   1_455  S
Cd214       O218   2.505       .  S
Cd214       O216   2.421       .  S
C217        O221   1.264   1_455  A
C217       C1045   1.492       .  S
O222        C225   1.273       .  A
O222       Cd227   2.495   1_554  S
C223        O232   1.265       .  A
C223        O228   1.273       .  A
C223        C949   1.494       .  S
O224        C230   1.273       .  A
O224       Cd227   2.507       .  S
C225        O233   1.267       .  A
C225        C930   1.496       .  S
C226        O231   1.273       .  A
C226        O229   1.265       .  A
C226       C1050   1.486       .  S
Cd227       O234   2.406       .  S
Cd227       O233   2.449   1_556  S
Cd227       O232   2.424       .  S
Cd227       O228   2.515       .  S
Cd227       O231   2.506       .  S
Cd227       O229   2.411       .  S
C230        O234   1.267       .  A
C230       C1741   1.494       .  S
O235        C238   1.273       .  A
O235       Cd240   2.512   1_655  S
C236        O245   1.267       .  A
C236        O241   1.274   1_455  A
C236        C954   1.499       .  S
O237        C243   1.272       .  A
O237       Cd240   2.522       .  S
C238        O246   1.265   1_655  A
C238        C925   1.497       .  S
C239        O244   1.274       .  A
C239        O242   1.266   1_455  A
C239        C901   1.495   1_455  S
Cd240       O247   2.441       .  S
Cd240       O246   2.439       .  S
Cd240       O245   2.444       .  S
Cd240       O241   2.507   1_455  S
Cd240       O244   2.484       .  S
Cd240       O242   2.437   1_455  S
C243        O247   1.265       .  A
C243       C1189   1.488       .  S
O248        C251   1.271       .  A
O248       Cd253   2.531       .  S
C249        O258   1.264       .  A
C249        O254   1.272       .  A
C249       C1002   1.497       .  S
O250        C256   1.269       .  A
O250       Cd253   2.481       .  S
C251        O259   1.264       .  A
C251       C1021   1.495       .  S
C252        O257   1.268       .  A
C252        O255   1.265       .  A
C252       C1338   1.490       .  S
Cd253       O260   2.459       .  S
Cd253       O259   2.431       .  S
Cd253       O258   2.424       .  S
Cd253       O254   2.527       .  S
Cd253       O257   2.505       .  S
Cd253       O255   2.464       .  S
C256        O260   1.267       .  A
C256        C906   1.484       .  S
O261        C264   1.272       .  A
O261       Cd266   2.505       .  S
C262        O271   1.265       .  A
C262        O267   1.270   1_556  A
C262        C858   1.495       .  S
O263        C269   1.271       .  A
O263       Cd266   2.509       .  S
C264        O272   1.266       .  A
C264        C829   1.490       .  S
C265        O270   1.271       .  A
C265        O268   1.265       .  A
C265       C1117   1.481       .  S
Cd266       O273   2.437       .  S
Cd266       O272   2.434       .  S
Cd266       O271   2.448   1_554  S
Cd266       O267   2.510       .  S
Cd266       O270   2.514       .  S
Cd266       O268   2.420       .  S
C269        O273   1.265       .  A
C269        C882   1.496       .  S
O274        C277   1.273   1_556  A
O274       Cd279   2.507       .  S
C275        O284   1.263       .  A
C275        O280   1.271       .  A
C275        C781   1.500       .  S
O276        C282   1.271       .  A
O276       Cd279   2.492       .  S
C277        O285   1.266       .  A
C277        C805   1.494       .  S
C278        O283   1.269       .  A
C278        O281   1.265       .  A
C278       C1410   1.483       .  S
Cd279       O286   2.420       .  S
Cd279       O285   2.432   1_556  S
Cd279       O284   2.428       .  S
Cd279       O280   2.538       .  S
Cd279       O283   2.503       .  S
Cd279       O281   2.419       .  S
C282        O286   1.265       .  A
C282        C877   1.479       .  S
O287        C290   1.273       .  A
O287       Cd292   2.473       .  S
C288        O297   1.266       .  A
C288        O293   1.271       .  A
C288        C853   1.493       .  S
O289        C295   1.273       .  A
O289       Cd292   2.510       .  S
C290        O298   1.268       .  A
C290        C834   1.494       .  S
C291        O296   1.274       .  A
C291        O294   1.265       .  A
C291       C1722   1.492       .  S
Cd292       O299   2.431       .  S
Cd292       O298   2.428       .  S
Cd292       O297   2.427       .  S
Cd292       O293   2.505       .  S
Cd292       O296   2.496       .  S
Cd292       O294   2.420       .  S
C295        O299   1.265       .  A
C295        C757   1.486       .  S
O300        C303   1.272       .  A
O300       Cd305   2.521       .  S
C301        O310   1.266       .  A
C301        O306   1.274       .  A
C301        C786   1.498       .  S
O302        C308   1.272       .  A
O302       Cd305   2.491       .  S
C303        O311   1.264       .  A
C303        C810   1.489       .  S
C304        O309   1.271       .  A
C304        O307   1.265       .  A
C304        C733   1.484       .  S
Cd305       O312   2.434       .  S
Cd305       O311   2.437       .  S
Cd305       O310   2.447       .  S
Cd305       O306   2.506       .  S
Cd305       O309   2.507       .  S
Cd305       O307   2.423       .  S
C308        O312   1.267       .  A
C308        C762   1.495       .  S
O313        C316   1.273       .  A
O313       Cd318   2.514       .  S
C314        O323   1.265       .  A
C314        O319   1.273       .  A
C314        C685   1.493       .  S
O315        C321   1.272       .  A
O315       Cd318   2.507       .  S
C316        O324   1.265       .  A
C316        C661   1.499       .  S
C317        O322   1.272       .  A
C317        O320   1.266       .  A
C317       C1573   1.492       .  S
Cd318       O325   2.447       .  S
Cd318       O324   2.455       .  S
Cd318       O323   2.441       .  S
Cd318       O319   2.513       .  S
Cd318       O322   2.498       .  S
Cd318       O320   2.439       .  S
C321        O325   1.266       .  A
C321        C709   1.491       .  S
O326        C329   1.273       .  A
O326       Cd331   2.521       .  S
C327        O336   1.267       .  A
C327        O332   1.273       .  A
C327        C613   1.494       .  S
O328        C334   1.273       .  A
O328       Cd331   2.500       .  S
C329        O337   1.265       .  A
C329        C642   1.499       .  S
C330        O335   1.272       .  A
C330        O333   1.267       .  A
C330        C594   1.488       .  S
Cd331       O338   2.432       .  S
Cd331       O337   2.430       .  S
Cd331       O336   2.451       .  S
Cd331       O332   2.508       .  S
Cd331       O335   2.506       .  S
Cd331       O333   2.437       .  S
C334        O338   1.266       .  A
C334        C714   1.494       .  S
O339        C342   1.273       .  A
O339       Cd344   2.514       .  S
C340        O349   1.265       .  A
C340        O345   1.273       .  A
C340        C618   1.499       .  S
O341        C347   1.272       .  A
O341       Cd344   2.498       .  S
C342        O350   1.265       .  A
C342        C637   1.499       .  S
C343        O348   1.271       .  A
C343        O346   1.266       .  A
C343        C973   1.490       .  S
Cd344       O351   2.444       .  S
Cd344       O350   2.451       .  S
Cd344       O349   2.447       .  S
Cd344       O345   2.526       .  S
Cd344       O348   2.514       .  S
Cd344       O346   2.446       .  S
C347        O351   1.265       .  A
C347        C565   1.489       .  S
O352        C355   1.272       .  A
O352       Cd357   2.513       .  S
C353        O362   1.265       .  A
C353        O358   1.273       .  A
C353        C690   1.483       .  S
O354        C360   1.271       .  A
O354       Cd357   2.502       .  S
C355        O363   1.265       .  A
C355        C666   1.494       .  S
C356        O361   1.271       .  A
C356        O359   1.267       .  A
C356        C738   1.482       .  S
Cd357       O364   2.416       .  S
Cd357       O363   2.433       .  S
Cd357       O362   2.411       .  S
Cd357       O358   2.499       .  S
Cd357       O361   2.476       .  S
Cd357       O359   2.430       .  S
C360        O364   1.264       .  A
C360        C570   1.491       .  S
O365        C368   1.269       .  A
O365       Cd370   2.493       .  S
C366        O375   1.266       .  A
C366        O371   1.270       .  A
C366        C493   1.495       .  S
O367        C373   1.272       .  A
O367       Cd370   2.516       .  S
C368        O376   1.265       .  A
C368        C517   1.487       .  S
C369        O374   1.271       .  A
C369        O372   1.267       .  A
C369       C1866   1.496       .  S
Cd370       O377   2.431       .  S
Cd370       O376   2.465       .  S
Cd370       O375   2.441       .  S
Cd370       O371   2.506       .  S
Cd370       O374   2.510       .  S
Cd370       O372   2.439       .  S
C373        O377   1.264       .  A
C373        C541   1.493       .  S
O378        C381   1.272       .  A
O378       Cd383   2.516       .  S
C379        O388   1.265       .  A
C379        O384   1.272   1_455  A
C379        C469   1.487       .  S
O380        C386   1.272       .  A
O380       Cd383   2.493       .  S
C381        O389   1.264       .  A
C381        C445   1.493       .  S
C382        O387   1.269       .  A
C382        O385   1.264       .  A
C382        C546   1.489       .  S
Cd383       O390   2.441       .  S
Cd383       O389   2.429       .  S
Cd383       O388   2.447       .  S
Cd383       O384   2.521   1_455  S
Cd383       O387   2.503       .  S
Cd383       O385   2.469       .  S
C386        O390   1.266       .  A
C386        C589   1.487       .  S
O391        C394   1.274       .  A
O391       Cd396   2.500       .  S
C392        O401   1.266       .  A
C392        O397   1.272   1_554  A
C392        C498   1.494       .  S
O393        C399   1.273       .  A
O393       Cd396   2.499       .  S
C394        O402   1.267       .  A
C394        C522   1.486       .  S
C395        O400   1.274       .  A
C395        O398   1.266       .  A
C395       C1074   1.481       .  S
Cd396       O403   2.438       .  S
Cd396       O402   2.440       .  S
Cd396       O401   2.431   1_556  S
Cd396       O397   2.495       .  S
Cd396       O400   2.502       .  S
Cd396       O398   2.380       .  S
C399        O403   1.266       .  A
C399        C426   1.492       .  S
O404        C407   1.271   1_554  A
O404       Cd409   2.478       .  S
C405        O414   1.267       .  A
C405        O410   1.272       .  A
C405        C450   1.493       .  S
O406        C412   1.273       .  A
O406       Cd409   2.526       .  S
C407        O415   1.266       .  A
C407        C474   1.486       .  S
C408        O413   1.273       .  A
C408        O411   1.267       .  A
C408       C1290   1.489       .  S
Cd409       O416   2.433       .  S
Cd409       O415   2.449   1_554  S
Cd409       O414   2.431       .  S
Cd409       O410   2.515       .  S
Cd409       O413   2.499       .  S
Cd409       O411   2.424       .  S
C412        O416   1.264       .  A
C412        C421   1.496       .  S
C417        C418   1.411   1_455  A
C417        C422   1.401   1_455  A
C417        C431   1.444   1_554  S
C418        C423   1.497   1_654  S
C418        C419   1.408       .  A
C419        C420   1.408       .  A
C419        H438   1.085       .  S
C420        C421   1.415       .  A
C420        C432   1.443       .  S
C421        C422   1.409       .  A
C422        H437   1.085   1_655  S
C423        C424   1.403   1_455  A
C423        C428   1.415   1_556  A
C424        C425   1.403       .  A
C424        H439   1.085       .  S
C425        C426   1.417   1_655  A
C425        C429   1.444       .  S
C426        C427   1.406       .  A
C427        C428   1.405   1_556  A
C427        H440   1.085   1_556  S
C428        C430   1.444       .  S
C429        N433   1.157       .  T
C430        N434   1.157       .  T
C431        N436   1.157       .  T
C432        N435   1.157       .  T
C441        C442   1.408   1_455  A
C441        C446   1.399       .  A
C441        C455   1.445       .  S
C442        C447   1.490       .  S
C442        C443   1.405       .  A
C443        C444   1.408       .  A
C443        H462   1.085       .  S
C444        C445   1.416   1_655  A
C444        C456   1.443       .  S
C445        C446   1.408       .  A
C446        H461   1.085       .  S
C447        C448   1.406   1_655  A
C447        C452   1.407       .  A
C448        C449   1.408       .  A
C448        H463   1.085       .  S
C449        C450   1.416   1_455  A
C449        C453   1.443       .  S
C450        C451   1.408       .  A
C451        C452   1.400       .  A
C451        H464   1.085       .  S
C452        C454   1.444       .  S
C453        N457   1.157       .  T
C454        N458   1.157       .  T
C455        N460   1.157       .  T
C456        N459   1.157       .  T
C465        C466   1.413   1_455  A
C465        C470   1.403       .  A
C465        C479   1.444       .  S
C466        C471   1.500       .  S
C466        C467   1.409       .  A
C467        C468   1.407       .  A
C467        H486   1.085       .  S
C468        C469   1.412   1_655  A
C468        C480   1.443       .  S
C469        C470   1.405       .  A
C470        H485   1.085       .  S
C471        C472   1.407   1_655  A
C471        C476   1.414       .  A
C472        C473   1.402   1_455  A
C472        H487   1.085       .  S
C473        C474   1.413       .  A
C473        C477   1.445   1_655  S
C474        C475   1.406       .  A
C475        C476   1.405       .  A
C475        H488   1.085       .  S
C476        C478   1.443       .  S
C477        N481   1.157       .  T
C478        N482   1.157       .  T
C479        N484   1.157       .  T
C480        N483   1.157       .  T
C489        C490   1.408   1_655  A
C489        C494   1.399       .  A
C489        C503   1.445       .  S
C490        C495   1.489       .  S
C490        C491   1.404       .  A
C491        C492   1.407       .  A
C491        H510   1.085       .  S
C492        C493   1.418   1_455  A
C492        C504   1.443       .  S
C493        C494   1.409       .  A
C494        H509   1.085       .  S
C495        C496   1.405       .  A
C495        C500   1.408       .  A
C496        C497   1.406       .  A
C496        H511   1.085   1_455  S
C497        C498   1.416       .  A
C497        C501   1.443   1_455  S
C498        C499   1.409       .  A
C499        C500   1.400       .  A
C499        H512   1.085       .  S
C500        C502   1.444       .  S
C501        N505   1.157       .  T
C502        N506   1.157       .  T
C503        N508   1.157       .  T
C504        N507   1.157       .  T
C513        C514   1.416   1_655  A
C513        C518   1.406       .  A
C513        C527   1.444       .  S
C514        C519   1.505       .  S
C514        C515   1.408       .  A
C515        C516   1.403       .  A
C515        H534   1.085       .  S
C516        C517   1.413   1_455  A
C516        C528   1.445       .  S
C517        C518   1.405       .  A
C518        H533   1.085       .  S
C519        C520   1.411   1_455  A
C519        C524   1.416       .  A
C520        C521   1.406       .  A
C520        H535   1.084       .  S
C521        C522   1.409   1_655  A
C521        C525   1.443       .  S
C522        C523   1.405       .  A
C523        C524   1.403       .  A
C523        H536   1.085       .  S
C524        C526   1.445       .  S
C525        N529   1.157       .  T
C526        N530   1.157       .  T
C527        N532   1.157       .  T
C528        N531   1.157       .  T
C537        C538   1.408   1_455  A
C537        C542   1.400       .  A
C537        C551   1.444       .  S
C538        C543   1.492   1_655  S
C538        C539   1.406       .  A
C539        C540   1.409       .  A
C539        H558   1.083       .  S
C540        C541   1.415       .  A
C540        C552   1.443       .  S
C541        C542   1.409   1_655  A
C542        H557   1.083       .  S
C543        C544   1.404   1_455  A
C543        C548   1.411       .  A
C544        C545   1.406   1_655  A
C544        H559   1.085       .  S
C545        C546   1.415       .  A
C545        C549   1.444   1_455  S
C546        C547   1.405       .  A
C547        C548   1.404       .  A
C547        H560   1.085       .  S
C548        C550   1.444       .  S
C549        N553   1.157       .  T
C550        N554   1.157       .  T
C551        N556   1.157       .  T
C552        N555   1.157       .  T
C561        C562   1.415       .  A
C561        C566   1.404       .  A
C561        C575   1.444       .  S
C562        C567   1.496       .  S
C562        C563   1.404       .  A
C563        C564   1.402       .  A
C563        H582   1.084       .  S
C564        C565   1.417       .  A
C564        C576   1.444       .  S
C565        C566   1.405       .  A
C566        H581   1.085       .  S
C567        C568   1.402       .  A
C567        C572   1.415       .  A
C568        C569   1.400       .  A
C568        H583   1.085       .  S
C569        C570   1.419       .  A
C569        C573   1.445       .  S
C570        C571   1.406       .  A
C571        C572   1.405       .  A
C571        H584   1.085       .  S
C572        C574   1.444       .  S
C573        N577   1.158       .  T
C574        N578   1.157       .  T
C575        N580   1.157       .  T
C576        N579   1.157       .  T
C585        C586   1.409       .  A
C585        C590   1.404       .  A
C585        C599   1.443       .  S
C586        C591   1.487       .  S
C586        C587   1.402       .  A
C587        C588   1.402       .  A
C587        H606   1.085       .  S
C588        C589   1.416       .  A
C588        C600   1.444       .  S
C589        C590   1.406       .  A
C590        H605   1.084       .  S
C591        C592   1.401       .  A
C591        C596   1.410       .  A
C592        C593   1.402       .  A
C592        H607   1.085       .  S
C593        C594   1.416       .  A
C593        C597   1.444       .  S
C594        C595   1.407       .  A
C595        C596   1.406       .  A
C595        H608   1.084       .  S
C596        C598   1.444       .  S
C597        N601   1.157       .  T
C598        N602   1.157       .  T
C599        N604   1.157       .  T
C600        N603   1.157       .  T
C609        C610   1.415       .  A
C609        C614   1.407       .  A
C609        C623   1.444       .  S
C610        C615   1.500       .  S
C610        C611   1.404       .  A
C611        C612   1.406       .  A
C611        H630   1.085       .  S
C612        C613   1.416       .  A
C612        C624   1.444       .  S
C613        C614   1.405       .  A
C614        H629   1.085       .  S
C615        C616   1.403       .  A
C615        C620   1.414       .  A
C616        C617   1.403   1_556  A
C616        H631   1.085       .  S
C617        C618   1.419       .  A
C617        C621   1.445       .  S
C618        C619   1.408       .  A
C619        C620   1.409   1_554  A
C619        H632   1.084       .  S
C620        C622   1.443       .  S
C621        N625   1.157       .  T
C622        N626   1.157       .  T
C623        N628   1.157       .  T
C624        N627   1.157       .  T
C633        C634   1.413       .  A
C633        C638   1.407       .  A
C633        C647   1.443       .  S
C634        C639   1.498       .  S
C634        C635   1.402       .  A
C635        C636   1.404       .  A
C635        H654   1.085       .  S
C636        C637   1.421       .  A
C636        C648   1.444       .  S
C637        C638   1.408       .  A
C638        H653   1.084       .  S
C639        C640   1.407       .  A
C639        C644   1.412       .  A
C640        C641   1.408       .  A
C640        H655   1.085       .  S
C641        C642   1.417       .  A
C641        C645   1.443       .  S
C642        C643   1.410       .  A
C643        C644   1.401       .  A
C643        H656   1.085       .  S
C644        C646   1.444       .  S
C645        N649   1.157       .  T
C646        N650   1.157       .  T
C647        N652   1.157       .  T
C648        N651   1.157       .  T
C657        C658   1.413       .  A
C657        C662   1.406       .  A
C657        C671   1.444       .  S
C658        C663   1.496       .  S
C658        C659   1.401       .  A
C659        C660   1.404       .  A
C659        H678   1.085       .  S
C660        C661   1.421       .  A
C660        C672   1.444       .  S
C661        C662   1.408       .  A
C662        H677   1.085       .  S
C663        C664   1.407       .  A
C663        C668   1.411       .  A
C664        C665   1.409       .  A
C664        H679   1.085       .  S
C665        C666   1.416       .  A
C665        C669   1.444       .  S
C666        C667   1.407       .  A
C667        C668   1.400       .  A
C667        H680   1.085       .  S
C668        C670   1.444       .  S
C669        N673   1.157       .  T
C670        N674   1.157       .  T
C671        N676   1.157       .  T
C672        N675   1.157       .  T
C681        C682   1.413   1_556  A
C681        C686   1.407       .  A
C681        C695   1.444   1_556  S
C682        C687   1.496       .  S
C682        C683   1.403       .  A
C683        C684   1.402   1_554  A
C683        H702   1.085       .  S
C684        C685   1.417       .  A
C684        C696   1.444       .  S
C685        C686   1.407       .  A
C686        H701   1.084       .  S
C687        C688   1.404       .  A
C687        C692   1.416       .  A
C688        C689   1.401       .  A
C688        H703   1.084       .  S
C689        C690   1.414       .  A
C689        C693   1.444       .  S
C690        C691   1.404       .  A
C691        C692   1.404       .  A
C691        H704   1.085       .  S
C692        C694   1.444       .  S
C693        N697   1.157       .  T
C694        N698   1.157       .  T
C695        N700   1.157       .  T
C696        N699   1.157       .  T
C705        C706   1.412       .  A
C705        C710   1.403       .  A
C705        C719   1.444       .  S
C706        C711   1.496       .  S
C706        C707   1.405       .  A
C707        C708   1.406       .  A
C707        H726   1.085       .  S
C708        C709   1.415       .  A
C708        C720   1.443       .  S
C709        C710   1.407       .  A
C710        H725   1.085       .  S
C711        C712   1.407       .  A
C711        C716   1.410       .  A
C712        C713   1.406       .  A
C712        H727   1.085       .  S
C713        C714   1.415       .  A
C713        C717   1.443       .  S
C714        C715   1.409       .  A
C715        C716   1.402       .  A
C715        H728   1.085       .  S
C716        C718   1.444       .  S
C717        N721   1.157       .  T
C718        N722   1.157       .  T
C719        N724   1.157       .  T
C720        N723   1.157       .  T
C729        C730   1.408       .  A
C729        C734   1.406       .  A
C729        C743   1.443       .  S
C730        C735   1.482       .  S
C730        C731   1.400       .  A
C731        C732   1.399       .  A
C731        H750   1.085       .  S
C732        C733   1.415       .  A
C732        C744   1.445       .  S
C733        C734   1.407       .  A
C734        H749   1.084       .  S
C735        C736   1.401       .  A
C735        C740   1.408       .  A
C736        C737   1.400       .  A
C736        H751   1.085       .  S
C737        C738   1.414       .  A
C737        C741   1.444       .  S
C738        C739   1.406       .  A
C739        C740   1.403       .  A
C739        H752   1.084       .  S
C740        C742   1.443       .  S
C741        N745   1.157       .  T
C742        N746   1.157       .  T
C743        N748   1.157       .  T
C744        N747   1.157       .  T
C753        C754   1.415       .  A
C753        C758   1.405       .  A
C753        C767   1.444       .  S
C754        C759   1.494       .  S
C754        C755   1.403       .  A
C755        C756   1.403       .  A
C755        H774   1.085       .  S
C756        C757   1.416       .  A
C756        C768   1.446       .  S
C757        C758   1.403       .  A
C758        H773   1.085       .  S
C759        C760   1.406       .  A
C759        C764   1.410       .  A
C760        C761   1.406       .  A
C760        H775   1.085       .  S
C761        C762   1.417       .  A
C761        C765   1.444       .  S
C762        C763   1.409       .  A
C763        C764   1.400       .  A
C763        H776   1.084       .  S
C764        C766   1.444       .  S
C765        N769   1.157       .  T
C766        N770   1.157       .  T
C767        N772   1.157       .  T
C768        N771   1.158       .  T
C777        C778   1.412       .  A
C777        C782   1.411       .  A
C777        C791   1.443       .  S
C778        C783   1.493       .  S
C778        C779   1.399       .  A
C779        C780   1.398       .  A
C779        H798   1.085       .  S
C780        C781   1.422       .  A
C780        C792   1.444       .  S
C781        C782   1.411       .  A
C782        H797   1.084       .  S
C783        C784   1.401       .  A
C783        C788   1.412       .  A
C784        C785   1.405       .  A
C784        H799   1.085       .  S
C785        C786   1.422       .  A
C785        C789   1.444       .  S
C786        C787   1.407       .  A
C787        C788   1.405       .  A
C787        H800   1.084       .  S
C788        C790   1.444       .  S
C789        N793   1.157       .  T
C790        N794   1.157       .  T
C791        N796   1.157       .  T
C792        N795   1.157       .  T
C801        C802   1.407       .  A
C801        C806   1.402       .  A
C801        C815   1.443       .  S
C802        C807   1.490       .  S
C802        C803   1.405       .  A
C803        C804   1.408       .  A
C803        H822   1.085       .  S
C804        C805   1.417       .  A
C804        C816   1.444       .  S
C805        C806   1.409       .  A
C806        H821   1.085       .  S
C807        C808   1.401       .  A
C807        C812   1.410       .  A
C808        C809   1.402       .  A
C808        H823   1.085       .  S
C809        C810   1.416       .  A
C809        C813   1.445       .  S
C810        C811   1.407       .  A
C811        C812   1.407       .  A
C811        H824   1.084       .  S
C812        C814   1.442       .  S
C813        N817   1.157       .  T
C814        N818   1.157       .  T
C815        N820   1.157       .  T
C816        N819   1.157       .  T
C825        C826   1.409       .  A
C825        C830   1.407       .  A
C825        C839   1.443       .  S
C826        C831   1.486       .  S
C826        C827   1.400       .  A
C827        C828   1.400       .  A
C827        H846   1.085       .  S
C828        C829   1.417       .  A
C828        C840   1.444       .  S
C829        C830   1.409       .  A
C830        H845   1.084       .  S
C831        C832   1.402       .  A
C831        C836   1.407       .  A
C832        C833   1.405       .  A
C832        H847   1.085       .  S
C833        C834   1.418       .  A
C833        C837   1.443       .  S
C834        C835   1.410       .  A
C835        C836   1.400       .  A
C835        H848   1.085       .  S
C836        C838   1.444       .  S
C837        N841   1.157       .  T
C838        N842   1.157       .  T
C839        N844   1.157       .  T
C840        N843   1.157       .  T
C849        C850   1.410       .  A
C849        C854   1.399       .  A
C849        C863   1.444       .  S
C850        C855   1.493       .  S
C850        C851   1.405       .  A
C851        C852   1.408       .  A
C851        H870   1.085       .  S
C852        C853   1.418       .  A
C852        C864   1.443       .  S
C853        C854   1.407       .  A
C854        H869   1.085       .  S
C855        C856   1.405       .  A
C855        C860   1.408       .  A
C856        C857   1.405       .  A
C856        H871   1.085       .  S
C857        C858   1.417       .  A
C857        C861   1.443       .  S
C858        C859   1.409       .  A
C859        C860   1.402       .  A
C859        H872   1.085       .  S
C860        C862   1.444       .  S
C861        N865   1.157       .  T
C862        N866   1.157       .  T
C863        N868   1.157       .  T
C864        N867   1.157       .  T
C873        C874   1.416       .  A
C873        C878   1.405       .  A
C873        C887   1.443       .  S
C874        C879   1.492   1_556  S
C874        C875   1.402   1_556  A
C875        C876   1.398       .  A
C875        H894   1.085       .  S
C876        C877   1.413   1_554  A
C876        C888   1.445       .  S
C877        C878   1.403       .  A
C878        H893   1.085       .  S
C879        C880   1.405       .  A
C879        C884   1.409       .  A
C880        C881   1.404       .  A
C880        H895   1.085   1_554  S
C881        C882   1.417       .  A
C881        C885   1.443       .  S
C882        C883   1.410       .  A
C883        C884   1.401       .  A
C883        H896   1.084       .  S
C884        C886   1.444       .  S
C885        N889   1.157       .  T
C886        N890   1.157       .  T
C887        N892   1.157       .  T
C888        N891   1.157       .  T
C897        C898   1.414   1_455  A
C897        C902   1.403       .  A
C897        C911   1.443       .  S
C898        C903   1.496       .  S
C898        C899   1.403       .  A
C899        C900   1.403       .  A
C899        H918   1.085       .  S
C900        C901   1.421       .  A
C900        C912   1.445       .  S
C901        C902   1.406   1_655  A
C902        H917   1.084       .  S
C903        C904   1.406   1_565  A
C903        C908   1.414   1_565  A
C904        C905   1.403       .  A
C904        H919   1.085   1_545  S
C905        C906   1.413       .  A
C905        C909   1.444       .  S
C906        C907   1.404       .  A
C907        C908   1.403       .  A
C907        H920   1.085       .  S
C908        C910   1.444   1_645  S
C909        N913   1.157       .  T
C910        N914   1.157       .  T
C911        N916   1.157       .  T
C912        N915   1.158       .  T
C921        C922   1.409       .  A
C921        C926   1.401       .  A
C921        C935   1.445       .  S
C922        C927   1.491       .  S
C922        C923   1.404       .  A
C923        C924   1.408       .  A
C923        H942   1.085       .  S
C924        C925   1.418       .  A
C924        C936   1.442       .  S
C925        C926   1.410       .  A
C926        H941   1.085   1_655  S
C927        C928   1.403       .  A
C927        C932   1.408       .  A
C928        C929   1.404       .  A
C928        H943   1.085   1_655  S
C929        C930   1.417       .  A
C929        C933   1.443   1_655  S
C930        C931   1.411       .  A
C931        C932   1.405       .  A
C931        H944   1.085       .  S
C932        C934   1.444       .  S
C933        N937   1.157       .  T
C934        N938   1.157       .  T
C935        N940   1.157       .  T
C936        N939   1.157       .  T
C945        C946   1.413   1_455  A
C945        C950   1.408   1_455  A
C945        C959   1.443       .  S
C946        C951   1.495       .  S
C946        C947   1.401       .  A
C947        C948   1.401       .  A
C947        H966   1.085       .  S
C948        C949   1.419       .  A
C948        C960   1.445       .  S
C949        C950   1.407       .  A
C950        H965   1.084   1_655  S
C951        C952   1.405       .  A
C951        C956   1.410   1_655  A
C952        C953   1.407       .  A
C952        H967   1.085       .  S
C953        C954   1.417   1_655  A
C953        C957   1.443       .  S
C954        C955   1.411       .  A
C955        C956   1.403       .  A
C955        H968   1.084       .  S
C956        C958   1.445       .  S
C957        N961   1.157       .  T
C958        N962   1.157       .  T
C959        N964   1.157       .  T
C960        N963   1.157       .  T
C969        C970   1.409       .  A
C969        C974   1.401       .  A
C969        C983   1.444       .  S
C970        C975   1.488       .  S
C970        C971   1.403       .  A
C971        C972   1.407       .  A
C971        H990   1.085       .  S
C972        C973   1.416       .  A
C972        C984   1.443       .  S
C973        C974   1.406       .  A
C974        H989   1.085       .  S
C975        C976   1.401       .  A
C975        C980   1.410       .  A
C976        C977   1.400       .  A
C976        H991   1.085       .  S
C977        C978   1.416       .  A
C977        C981   1.445       .  S
C978        C979   1.408       .  A
C979        C980   1.407       .  A
C979        H992   1.084       .  S
C980        C982   1.443       .  S
C981        N985   1.157       .  T
C982        N986   1.157       .  T
C983        N988   1.157       .  T
C984        N987   1.157       .  T
C993        C994   1.413   1_455  A
C993        C998   1.399       .  A
C993       C1007   1.444       .  S
C994        C999   1.499       .  S
C994        C995   1.409       .  A
C995        C996   1.406       .  A
C995       H1014   1.085       .  S
C996        C997   1.413   1_655  A
C996       C1008   1.443       .  S
C997        C998   1.406       .  A
C998       H1013   1.085       .  S
C999       C1000   1.408       .  A
C999       C1004   1.412       .  A
C1000      C1001   1.407       .  A
C1000      H1015   1.084   1_655  S
C1001      C1002   1.416       .  A
C1001      C1005   1.443   1_655  S
C1002      C1003   1.409       .  A
C1003      C1004   1.399       .  A
C1003      H1016   1.085       .  S
C1004      C1006   1.445       .  S
C1005      N1009   1.157       .  T
C1006      N1010   1.157       .  T
C1007      N1012   1.157       .  T
C1008      N1011   1.157       .  T
C1017      C1018   1.410       .  A
C1017      C1022   1.398       .  A
C1017      C1031   1.445       .  S
C1018      C1023   1.491       .  S
C1018      C1019   1.405       .  A
C1019      C1020   1.409       .  A
C1019      H1038   1.085   1_655  S
C1020      C1021   1.418       .  A
C1020      C1032   1.443       .  S
C1021      C1022   1.407       .  A
C1022      H1037   1.085       .  S
C1023      C1024   1.401   1_655  A
C1023      C1028   1.414       .  A
C1024      C1025   1.402       .  A
C1024      H1039   1.085       .  S
C1025      C1026   1.416       .  A
C1025      C1029   1.444       .  S
C1026      C1027   1.404   1_455  A
C1027      C1028   1.404       .  A
C1027      H1040   1.084       .  S
C1028      C1030   1.444       .  S
C1029      N1033   1.157       .  T
C1030      N1034   1.157       .  T
C1031      N1036   1.157       .  T
C1032      N1035   1.157       .  T
C1041      C1042   1.411   1_446  A
C1041      C1046   1.403   1_556  A
C1041      C1055   1.444   1_545  S
C1042      C1047   1.490   1_554  S
C1042      C1043   1.401   1_565  A
C1043      C1044   1.402       .  A
C1043      H1062   1.085       .  S
C1044      C1045   1.419   1_655  A
C1044      C1056   1.444       .  S
C1045      C1046   1.407       .  A
C1046      H1061   1.084   1_554  S
C1047      C1048   1.401   1_556  A
C1047      C1052   1.413       .  A
C1048      C1049   1.399   1_554  A
C1048      H1063   1.085   1_655  S
C1049      C1050   1.417       .  A
C1049      C1053   1.445   1_556  S
C1050      C1051   1.405       .  A
C1051      C1052   1.406       .  A
C1051      H1064   1.085       .  S
C1052      C1054   1.444       .  S
C1053      N1057   1.157   1_655  T
C1054      N1058   1.157   1_565  T
C1055      N1060   1.157       .  T
C1056      N1059   1.157       .  T
C1065      C1066   1.408       .  A
C1065      C1070   1.395       .  A
C1065      C1079   1.445       .  S
C1066      C1071   1.480       .  S
C1066      C1067   1.404       .  A
C1067      C1068   1.405       .  A
C1067      H1086   1.085       .  S
C1068      C1069   1.412       .  A
C1068      C1080   1.443       .  S
C1069      C1070   1.404       .  A
C1070      H1085   1.085       .  S
C1071      C1072   1.397       .  A
C1071      C1076   1.409       .  A
C1072      C1073   1.394       .  A
C1072      H1087   1.085       .  S
C1073      C1074   1.417       .  A
C1073      C1077   1.446       .  S
C1074      C1075   1.406       .  A
C1075      C1076   1.407       .  A
C1075      H1088   1.084       .  S
C1076      C1078   1.443       .  S
C1077      N1081   1.157       .  T
C1078      N1082   1.157       .  T
C1079      N1084   1.157       .  T
C1080      N1083   1.157       .  T
C1089      C1090   1.411       .  A
C1089      C1094   1.403       .  A
C1089      C1103   1.444       .  S
C1090      C1095   1.483       .  S
C1090      C1091   1.400       .  A
C1091      C1092   1.397       .  A
C1091      H1110   1.085       .  S
C1092      C1093   1.414       .  A
C1092      C1104   1.444       .  S
C1093      C1094   1.405       .  A
C1094      H1109   1.085       .  S
C1095      C1096   1.399       .  A
C1095      C1100   1.411       .  A
C1096      C1097   1.399       .  A
C1096      H1111   1.085       .  S
C1097      C1098   1.418       .  A
C1097      C1101   1.444       .  S
C1098      C1099   1.406       .  A
C1099      C1100   1.402       .  A
C1099      H1112   1.084       .  S
C1100      C1102   1.444       .  S
C1101      N1105   1.157       .  T
C1102      N1106   1.157       .  T
C1103      N1108   1.157       .  T
C1104      N1107   1.157       .  T
C1113      C1114   1.411       .  A
C1113      C1118   1.406       .  A
C1113      C1127   1.443       .  S
C1114      C1119   1.487       .  S
C1114      C1115   1.401       .  A
C1115      C1116   1.401       .  A
C1115      H1134   1.085       .  S
C1116      C1117   1.414       .  A
C1116      C1128   1.445       .  S
C1117      C1118   1.404       .  A
C1118      H1133   1.084       .  S
C1119      C1120   1.404       .  A
C1119      C1124   1.408       .  A
C1120      C1121   1.409       .  A
C1120      H1135   1.084       .  S
C1121      C1122   1.416       .  A
C1121      C1125   1.443       .  S
C1122      C1123   1.405       .  A
C1123      C1124   1.398       .  A
C1123      H1136   1.085       .  S
C1124      C1126   1.445       .  S
C1125      N1129   1.157       .  T
C1126      N1130   1.157       .  T
C1127      N1132   1.157       .  T
C1128      N1131   1.157       .  T
C1137      C1138   1.412       .  A
C1137      C1142   1.406       .  A
C1137      C1151   1.443       .  S
C1138      C1143   1.495       .  S
C1138      C1139   1.402       .  A
C1139      C1140   1.402       .  A
C1139      H1158   1.085       .  S
C1140      C1141   1.420       .  A
C1140      C1152   1.445       .  S
C1141      C1142   1.407       .  A
C1142      H1157   1.084       .  S
C1143      C1144   1.403       .  A
C1143      C1148   1.413       .  A
C1144      C1145   1.403       .  A
C1144      H1159   1.084       .  S
C1145      C1146   1.418       .  A
C1145      C1149   1.445       .  S
C1146      C1147   1.406       .  A
C1147      C1148   1.405       .  A
C1147      H1160   1.084       .  S
C1148      C1150   1.444       .  S
C1149      N1153   1.157       .  T
C1150      N1154   1.157       .  T
C1151      N1156   1.157       .  T
C1152      N1155   1.158       .  T
C1161      C1162   1.412       .  A
C1161      C1166   1.408       .  A
C1161      C1175   1.444       .  S
C1162      C1167   1.491       .  S
C1162      C1163   1.398       .  A
C1163      C1164   1.398       .  A
C1163      H1182   1.086       .  S
C1164      C1165   1.422       .  A
C1164      C1176   1.444       .  S
C1165      C1166   1.409       .  A
C1166      H1181   1.084       .  S
C1167      C1168   1.405       .  A
C1167      C1172   1.410       .  A
C1168      C1169   1.404   1_556  A
C1168      H1183   1.085       .  S
C1169      C1170   1.415       .  A
C1169      C1173   1.443       .  S
C1170      C1171   1.409       .  A
C1171      C1172   1.401   1_554  A
C1171      H1184   1.085       .  S
C1172      C1174   1.445       .  S
C1173      N1177   1.157       .  T
C1174      N1178   1.157       .  T
C1175      N1180   1.157       .  T
C1176      N1179   1.157       .  T
C1185      C1186   1.410       .  A
C1185      C1190   1.401       .  A
C1185      C1199   1.444       .  S
C1186      C1191   1.492       .  S
C1186      C1187   1.405       .  A
C1187      C1188   1.409       .  A
C1187      H1206   1.085       .  S
C1188      C1189   1.415       .  A
C1188      C1200   1.444       .  S
C1189      C1190   1.405       .  A
C1190      H1205   1.085       .  S
C1191      C1192   1.401       .  A
C1191      C1196   1.409       .  A
C1192      C1193   1.402       .  A
C1192      H1207   1.085       .  S
C1193      C1194   1.421       .  A
C1193      C1197   1.445       .  S
C1194      C1195   1.410       .  A
C1195      C1196   1.408       .  A
C1195      H1208   1.084       .  S
C1196      C1198   1.443       .  S
C1197      N1201   1.158       .  T
C1198      N1202   1.157       .  T
C1199      N1204   1.157       .  T
C1200      N1203   1.157       .  T
C1209      C1210   1.408       .  A
C1209      C1214   1.407       .  A
C1209      C1223   1.443       .  S
C1210      C1215   1.484       .  S
C1210      C1211   1.399       .  A
C1211      C1212   1.400       .  A
C1211      H1230   1.085       .  S
C1212      C1213   1.418       .  A
C1212      C1224   1.445       .  S
C1213      C1214   1.409       .  A
C1214      H1229   1.084       .  S
C1215      C1216   1.399       .  A
C1215      C1220   1.409       .  A
C1216      C1217   1.402       .  A
C1216      H1231   1.085       .  S
C1217      C1218   1.420       .  A
C1217      C1221   1.445       .  S
C1218      C1219   1.406       .  A
C1219      C1220   1.402       .  A
C1219      H1232   1.084       .  S
C1220      C1222   1.443       .  S
C1221      N1225   1.158       .  T
C1222      N1226   1.157       .  T
C1223      N1228   1.157       .  T
C1224      N1227   1.157       .  T
C1233      C1234   1.415       .  A
C1233      C1238   1.407       .  A
C1233      C1247   1.445       .  S
C1234      C1239   1.496       .  S
C1234      C1235   1.401       .  A
C1235      C1236   1.401       .  A
C1235      H1254   1.085       .  S
C1236      C1237   1.419       .  A
C1236      C1248   1.444       .  S
C1237      C1238   1.408       .  A
C1238      H1253   1.084       .  S
C1239      C1240   1.409   1_554  A
C1239      C1244   1.411   1_554  A
C1240      C1241   1.409       .  A
C1240      H1255   1.085       .  S
C1241      C1242   1.416       .  A
C1241      C1245   1.444       .  S
C1242      C1243   1.407       .  A
C1243      C1244   1.395       .  A
C1243      H1256   1.085       .  S
C1244      C1246   1.444   1_556  S
C1245      N1249   1.158       .  T
C1246      N1250   1.157       .  T
C1247      N1252   1.158       .  T
C1248      N1251   1.157       .  T
C1257      C1258   1.407       .  A
C1257      C1262   1.401       .  A
C1257      C1271   1.444       .  S
C1258      C1263   1.483       .  S
C1258      C1259   1.401       .  A
C1259      C1260   1.403       .  A
C1259      H1278   1.085       .  S
C1260      C1261   1.416       .  A
C1260      C1272   1.444       .  S
C1261      C1262   1.409       .  A
C1262      H1277   1.084       .  S
C1263      C1264   1.400       .  A
C1263      C1268   1.411       .  A
C1264      C1265   1.399       .  A
C1264      H1279   1.085       .  S
C1265      C1266   1.415       .  A
C1265      C1269   1.445       .  S
C1266      C1267   1.404       .  A
C1267      C1268   1.404       .  A
C1267      H1280   1.084       .  S
C1268      C1270   1.444       .  S
C1269      N1273   1.157       .  T
C1270      N1274   1.157       .  T
C1271      N1276   1.157       .  T
C1272      N1275   1.157       .  T
C1281      C1282   1.409       .  A
C1281      C1286   1.399       .  A
C1281      C1295   1.444       .  S
C1282      C1287   1.486       .  S
C1282      C1283   1.405       .  A
C1283      C1284   1.407       .  A
C1283      H1302   1.085       .  S
C1284      C1285   1.412       .  A
C1284      C1296   1.443       .  S
C1285      C1286   1.403       .  A
C1286      H1301   1.085       .  S
C1287      C1288   1.404       .  A
C1287      C1292   1.407       .  A
C1288      C1289   1.408       .  A
C1288      H1303   1.085       .  S
C1289      C1290   1.415       .  A
C1289      C1293   1.443       .  S
C1290      C1291   1.407       .  A
C1291      C1292   1.398       .  A
C1291      H1304   1.085       .  S
C1292      C1294   1.445       .  S
C1293      N1297   1.157       .  T
C1294      N1298   1.157       .  T
C1295      N1300   1.157       .  T
C1296      N1299   1.157       .  T
C1305      C1306   1.411       .  A
C1305      C1310   1.401       .  A
C1305      C1319   1.444       .  S
C1306      C1311   1.489       .  S
C1306      C1307   1.405       .  A
C1307      C1308   1.403       .  A
C1307      H1326   1.085       .  S
C1308      C1309   1.413       .  A
C1308      C1320   1.444       .  S
C1309      C1310   1.406       .  A
C1310      H1325   1.085       .  S
C1311      C1312   1.405       .  A
C1311      C1316   1.410       .  A
C1312      C1313   1.403       .  A
C1312      H1327   1.085       .  S
C1313      C1314   1.415       .  A
C1313      C1317   1.444       .  S
C1314      C1315   1.407       .  A
C1315      C1316   1.400       .  A
C1315      H1328   1.085       .  S
C1316      C1318   1.444       .  S
C1317      N1321   1.157       .  T
C1318      N1322   1.157       .  T
C1319      N1324   1.157       .  T
C1320      N1323   1.157       .  T
C1329      C1330   1.412       .  A
C1329      C1334   1.407       .  A
C1329      C1343   1.443       .  S
C1330      C1335   1.491       .  S
C1330      C1331   1.402       .  A
C1331      C1332   1.401       .  A
C1331      H1350   1.085       .  S
C1332      C1333   1.414       .  A
C1332      C1344   1.444       .  S
C1333      C1334   1.407       .  A
C1334      H1349   1.084       .  S
C1335      C1336   1.403       .  A
C1335      C1340   1.411       .  A
C1336      C1337   1.403       .  A
C1336      H1351   1.085       .  S
C1337      C1338   1.416       .  A
C1337      C1341   1.444       .  S
C1338      C1339   1.407       .  A
C1339      C1340   1.406       .  A
C1339      H1352   1.084       .  S
C1340      C1342   1.443       .  S
C1341      N1345   1.157       .  T
C1342      N1346   1.157       .  T
C1343      N1348   1.157       .  T
C1344      N1347   1.157       .  T
C1353      C1354   1.412       .  A
C1353      C1358   1.409       .  A
C1353      C1367   1.444       .  S
C1354      C1359   1.502       .  S
C1354      C1355   1.406       .  A
C1355      C1356   1.405       .  A
C1355      H1374   1.085       .  S
C1356      C1357   1.415       .  A
C1356      C1368   1.443       .  S
C1357      C1358   1.410       .  A
C1358      H1373   1.085       .  S
C1359      C1360   1.407       .  A
C1359      C1364   1.413       .  A
C1360      C1361   1.410   1_556  A
C1360      H1375   1.085       .  S
C1361      C1362   1.416       .  A
C1361      C1365   1.443       .  S
C1362      C1363   1.406       .  A
C1363      C1364   1.402   1_554  A
C1363      H1376   1.085       .  S
C1364      C1366   1.445       .  S
C1365      N1369   1.157       .  T
C1366      N1370   1.157       .  T
C1367      N1372   1.157       .  T
C1368      N1371   1.157       .  T
C1377      C1378   1.413       .  A
C1377      C1382   1.406       .  A
C1377      C1391   1.443       .  S
C1378      C1383   1.497       .  S
C1378      C1379   1.401       .  A
C1379      C1380   1.403       .  A
C1379      H1398   1.085       .  S
C1380      C1381   1.422       .  A
C1380      C1392   1.445       .  S
C1381      C1382   1.407       .  A
C1382      H1397   1.084       .  S
C1383      C1384   1.405       .  A
C1383      C1388   1.411       .  A
C1384      C1385   1.408       .  A
C1384      H1399   1.085       .  S
C1385      C1386   1.418       .  A
C1385      C1389   1.442       .  S
C1386      C1387   1.411       .  A
C1387      C1388   1.404       .  A
C1387      H1400   1.084       .  S
C1388      C1390   1.445       .  S
C1389      N1393   1.157       .  T
C1390      N1394   1.157       .  T
C1391      N1396   1.157       .  T
C1392      N1395   1.158       .  T
C1401      C1402   1.411       .  A
C1401      C1406   1.396       .  A
C1401      C1415   1.446       .  S
C1402      C1407   1.488       .  S
C1402      C1403   1.404       .  A
C1403      C1404   1.406       .  A
C1403      H1422   1.084       .  S
C1404      C1405   1.417       .  A
C1404      C1416   1.443       .  S
C1405      C1406   1.407       .  A
C1406      H1421   1.084       .  S
C1407      C1408   1.402       .  A
C1407      C1412   1.411       .  A
C1408      C1409   1.397       .  A
C1408      H1423   1.085       .  S
C1409      C1410   1.414       .  A
C1409      C1413   1.445       .  S
C1410      C1411   1.407       .  A
C1411      C1412   1.406       .  A
C1411      H1424   1.084       .  S
C1412      C1414   1.443       .  S
C1413      N1417   1.157       .  T
C1414      N1418   1.157       .  T
C1415      N1420   1.157       .  T
C1416      N1419   1.157       .  T
C1425      C1426   1.408       .  A
C1425      C1430   1.401       .  A
C1425      C1439   1.444       .  S
C1426      C1431   1.489       .  S
C1426      C1427   1.404       .  A
C1427      C1428   1.406       .  A
C1427      H1446   1.085       .  S
C1428      C1429   1.417       .  A
C1428      C1440   1.443       .  S
C1429      C1430   1.411       .  A
C1430      H1445   1.085       .  S
C1431      C1432   1.398       .  A
C1431      C1436   1.411       .  A
C1432      C1433   1.400       .  A
C1432      H1447   1.085       .  S
C1433      C1434   1.422       .  A
C1433      C1437   1.444       .  S
C1434      C1435   1.410       .  A
C1435      C1436   1.408       .  A
C1435      H1448   1.084       .  S
C1436      C1438   1.443       .  S
C1437      N1441   1.157       .  T
C1438      N1442   1.157       .  T
C1439      N1444   1.157       .  T
C1440      N1443   1.157       .  T
C1449      C1450   1.413   1_556  A
C1449      C1454   1.409       .  A
C1449      C1463   1.443       .  S
C1450      C1455   1.498       .  S
C1450      C1451   1.402       .  A
C1451      C1452   1.400   1_554  A
C1451      H1470   1.085       .  S
C1452      C1453   1.419       .  A
C1452      C1464   1.444       .  S
C1453      C1454   1.409       .  A
C1454      H1469   1.084       .  S
C1455      C1456   1.405       .  A
C1455      C1460   1.415       .  A
C1456      C1457   1.405       .  A
C1456      H1471   1.084       .  S
C1457      C1458   1.417       .  A
C1457      C1461   1.444       .  S
C1458      C1459   1.404       .  A
C1459      C1460   1.402       .  A
C1459      H1472   1.085       .  S
C1460      C1462   1.444       .  S
C1461      N1465   1.157       .  T
C1462      N1466   1.157       .  T
C1463      N1468   1.157   1_556  T
C1464      N1467   1.157       .  T
C1473      C1474   1.414       .  A
C1473      C1478   1.404       .  A
C1473      C1487   1.444       .  S
C1474      C1479   1.493       .  S
C1474      C1475   1.403       .  A
C1475      C1476   1.402       .  A
C1475      H1494   1.085       .  S
C1476      C1477   1.417       .  A
C1476      C1488   1.444       .  S
C1477      C1478   1.405       .  A
C1478      H1493   1.085       .  S
C1479      C1480   1.407       .  A
C1479      C1484   1.409       .  A
C1480      C1481   1.407       .  A
C1480      H1495   1.085       .  S
C1481      C1482   1.416       .  A
C1481      C1485   1.443       .  S
C1482      C1483   1.408       .  A
C1483      C1484   1.398       .  A
C1483      H1496   1.085       .  S
C1484      C1486   1.444       .  S
C1485      N1489   1.157       .  T
C1486      N1490   1.157       .  T
C1487      N1492   1.157       .  T
C1488      N1491   1.157       .  T
C1497      C1498   1.408       .  A
C1497      C1502   1.399       .  A
C1497      C1511   1.444       .  S
C1498      C1503   1.484       .  S
C1498      C1499   1.402       .  A
C1499      C1500   1.406       .  A
C1499      H1518   1.085       .  S
C1500      C1501   1.416       .  A
C1500      C1512   1.443       .  S
C1501      C1502   1.406       .  A
C1502      H1517   1.085       .  S
C1503      C1504   1.402       .  A
C1503      C1508   1.409       .  A
C1504      C1505   1.406       .  A
C1504      H1519   1.084       .  S
C1505      C1506   1.418       .  A
C1505      C1509   1.444       .  S
C1506      C1507   1.406       .  A
C1507      C1508   1.397       .  A
C1507      H1520   1.084       .  S
C1508      C1510   1.445       .  S
C1509      N1513   1.157       .  T
C1510      N1514   1.157       .  T
C1511      N1516   1.157       .  T
C1512      N1515   1.157       .  T
C1521      C1522   1.411       .  A
C1521      C1526   1.407       .  A
C1521      C1535   1.443       .  S
C1522      C1527   1.489       .  S
C1522      C1523   1.402       .  A
C1523      C1524   1.398       .  A
C1523      H1542   1.085       .  S
C1524      C1525   1.414       .  A
C1524      C1536   1.445       .  S
C1525      C1526   1.407       .  A
C1526      H1541   1.084       .  S
C1527      C1528   1.400       .  A
C1527      C1532   1.412       .  A
C1528      C1529   1.397       .  A
C1528      H1543   1.085       .  S
C1529      C1530   1.416       .  A
C1529      C1533   1.445       .  S
C1530      C1531   1.408       .  A
C1531      C1532   1.409       .  A
C1531      H1544   1.084       .  S
C1532      C1534   1.443       .  S
C1533      N1537   1.157       .  T
C1534      N1538   1.157       .  T
C1535      N1540   1.157       .  T
C1536      N1539   1.157       .  T
C1545      C1546   1.412       .  A
C1545      C1550   1.399       .  A
C1545      C1559   1.445       .  S
C1546      C1551   1.496   1_565  S
C1546      C1547   1.407       .  A
C1547      C1548   1.405       .  A
C1547      H1566   1.084       .  S
C1548      C1549   1.415       .  A
C1548      C1560   1.443       .  S
C1549      C1550   1.407       .  A
C1550      H1565   1.085       .  S
C1551      C1552   1.406       .  A
C1551      C1556   1.412       .  A
C1552      C1553   1.403       .  A
C1552      H1567   1.085   1_545  S
C1553      C1554   1.413       .  A
C1553      C1557   1.443       .  S
C1554      C1555   1.409       .  A
C1555      C1556   1.402       .  A
C1555      H1568   1.085       .  S
C1556      C1558   1.445       .  S
C1557      N1561   1.157       .  T
C1558      N1562   1.157       .  T
C1559      N1564   1.157       .  T
C1560      N1563   1.157       .  T
C1569      C1570   1.409       .  A
C1569      C1574   1.401       .  A
C1569      C1583   1.445       .  S
C1570      C1575   1.488       .  S
C1570      C1571   1.402       .  A
C1571      C1572   1.406       .  A
C1571      H1590   1.084       .  S
C1572      C1573   1.417       .  A
C1572      C1584   1.443       .  S
C1573      C1574   1.408       .  A
C1574      H1589   1.084       .  S
C1575      C1576   1.402       .  A
C1575      C1580   1.410       .  A
C1576      C1577   1.400       .  A
C1576      H1591   1.085       .  S
C1577      C1578   1.415       .  A
C1577      C1581   1.445       .  S
C1578      C1579   1.407       .  A
C1579      C1580   1.405       .  A
C1579      H1592   1.084       .  S
C1580      C1582   1.443       .  S
C1581      N1585   1.157       .  T
C1582      N1586   1.157       .  T
C1583      N1588   1.157       .  T
C1584      N1587   1.157       .  T
C1593      C1594   1.411       .  A
C1593      C1598   1.406       .  A
C1593      C1607   1.444       .  S
C1594      C1599   1.486       .  S
C1594      C1595   1.399       .  A
C1595      C1596   1.399       .  A
C1595      H1614   1.085       .  S
C1596      C1597   1.418       .  A
C1596      C1608   1.444       .  S
C1597      C1598   1.407       .  A
C1598      H1613   1.084       .  S
C1599      C1600   1.404       .  A
C1599      C1604   1.410       .  A
C1600      C1601   1.407       .  A
C1600      H1615   1.084       .  S
C1601      C1602   1.415       .  A
C1601      C1605   1.444       .  S
C1602      C1603   1.403       .  A
C1603      C1604   1.396       .  A
C1603      H1616   1.085       .  S
C1604      C1606   1.444       .  S
C1605      N1609   1.157       .  T
C1606      N1610   1.157       .  T
C1607      N1612   1.157       .  T
C1608      N1611   1.157       .  T
C1617      C1618   1.411       .  A
C1617      C1622   1.407       .  A
C1617      C1631   1.443       .  S
C1618      C1623   1.489       .  S
C1618      C1619   1.399       .  A
C1619      C1620   1.397       .  A
C1619      H1638   1.085       .  S
C1620      C1621   1.420       .  A
C1620      C1632   1.445       .  S
C1621      C1622   1.409       .  A
C1622      H1637   1.084       .  S
C1623      C1624   1.400       .  A
C1623      C1628   1.411       .  A
C1624      C1625   1.398       .  A
C1624      H1639   1.086       .  S
C1625      C1626   1.419       .  A
C1625      C1629   1.445       .  S
C1626      C1627   1.408       .  A
C1627      C1628   1.408       .  A
C1627      H1640   1.084       .  S
C1628      C1630   1.443       .  S
C1629      N1633   1.157       .  T
C1630      N1634   1.157       .  T
C1631      N1636   1.157       .  T
C1632      N1635   1.157       .  T
C1641      C1642   1.412       .  A
C1641      C1646   1.409       .  A
C1641      C1655   1.443       .  S
C1642      C1647   1.495       .  S
C1642      C1643   1.399       .  A
C1643      C1644   1.401       .  A
C1643      H1662   1.085       .  S
C1644      C1645   1.423       .  A
C1644      C1656   1.444       .  S
C1645      C1646   1.410       .  A
C1646      H1661   1.084       .  S
C1647      C1648   1.405       .  A
C1647      C1652   1.410       .  A
C1648      C1649   1.406       .  A
C1648      H1663   1.085       .  S
C1649      C1650   1.417       .  A
C1649      C1653   1.443       .  S
C1650      C1651   1.411       .  A
C1651      C1652   1.404       .  A
C1651      H1664   1.084       .  S
C1652      C1654   1.444       .  S
C1653      N1657   1.157       .  T
C1654      N1658   1.157       .  T
C1655      N1660   1.157       .  T
C1656      N1659   1.157       .  T
C1665      C1666   1.409       .  A
C1665      C1670   1.402       .  A
C1665      C1679   1.444       .  S
C1666      C1671   1.495       .  S
C1666      C1667   1.405       .  A
C1667      C1668   1.410       .  A
C1667      H1686   1.085       .  S
C1668      C1669   1.420       .  A
C1668      C1680   1.443       .  S
C1669      C1670   1.408       .  A
C1670      H1685   1.085       .  S
C1671      C1672   1.404       .  A
C1671      C1676   1.408       .  A
C1672      C1673   1.408       .  A
C1672      H1687   1.085       .  S
C1673      C1674   1.418       .  A
C1673      C1677   1.443       .  S
C1674      C1675   1.411       .  A
C1675      C1676   1.405       .  A
C1675      H1688   1.085       .  S
C1676      C1678   1.444       .  S
C1677      N1681   1.157       .  T
C1678      N1682   1.157       .  T
C1679      N1684   1.157       .  T
C1680      N1683   1.157       .  T
C1689      C1690   1.413       .  A
C1689      C1694   1.403       .  A
C1689      C1703   1.444       .  S
C1690      C1695   1.493   1_545  S
C1690      C1691   1.404   1_554  A
C1691      C1692   1.404       .  A
C1691      H1710   1.085       .  S
C1692      C1693   1.416       .  A
C1692      C1704   1.444       .  S
C1693      C1694   1.405   1_556  A
C1694      H1709   1.085       .  S
C1695      C1696   1.400       .  A
C1695      C1700   1.413       .  A
C1696      C1697   1.399       .  A
C1696      H1711   1.085   1_554  S
C1697      C1698   1.419       .  A
C1697      C1701   1.444       .  S
C1698      C1699   1.408       .  A
C1699      C1700   1.408       .  A
C1699      H1712   1.084       .  S
C1700      C1702   1.444       .  S
C1701      N1705   1.157       .  T
C1702      N1706   1.157   1_565  T
C1703      N1708   1.157   1_545  T
C1704      N1707   1.157       .  T
C1713      C1714   1.411       .  A
C1713      C1718   1.401       .  A
C1713      C1727   1.445       .  S
C1714      C1719   1.491       .  S
C1714      C1715   1.404       .  A
C1715      C1716   1.404       .  A
C1715      H1734   1.085       .  S
C1716      C1717   1.414       .  A
C1716      C1728   1.443       .  S
C1717      C1718   1.407       .  A
C1718      H1733   1.085       .  S
C1719      C1720   1.402       .  A
C1719      C1724   1.410       .  A
C1720      C1721   1.400       .  A
C1720      H1735   1.085       .  S
C1721      C1722   1.420       .  A
C1721      C1725   1.445       .  S
C1722      C1723   1.407       .  A
C1723      C1724   1.404       .  A
C1723      H1736   1.084       .  S
C1724      C1726   1.443       .  S
C1725      N1729   1.158       .  T
C1726      N1730   1.157       .  T
C1727      N1732   1.157       .  T
C1728      N1731   1.157       .  T
C1737      C1738   1.407       .  A
C1737      C1742   1.396       .  A
C1737      C1751   1.444       .  S
C1738      C1743   1.488       .  S
C1738      C1739   1.404       .  A
C1739      C1740   1.409       .  A
C1739      H1758   1.084       .  S
C1740      C1741   1.419       .  A
C1740      C1752   1.443       .  S
C1741      C1742   1.408       .  A
C1742      H1757   1.084       .  S
C1743      C1744   1.403       .  A
C1743      C1748   1.409       .  A
C1744      C1745   1.407       .  A
C1744      H1759   1.085       .  S
C1745      C1746   1.416       .  A
C1745      C1749   1.444       .  S
C1746      C1747   1.405       .  A
C1747      C1748   1.402       .  A
C1747      H1760   1.085       .  S
C1748      C1750   1.444       .  S
C1749      N1753   1.157       .  T
C1750      N1754   1.157       .  T
C1751      N1756   1.157       .  T
C1752      N1755   1.157       .  T
C1761      C1762   1.410       .  A
C1761      C1766   1.405       .  A
C1761      C1775   1.443       .  S
C1762      C1767   1.491       .  S
C1762      C1763   1.400       .  A
C1763      C1764   1.403       .  A
C1763      H1782   1.085       .  S
C1764      C1765   1.421       .  A
C1764      C1776   1.445       .  S
C1765      C1766   1.407       .  A
C1766      H1781   1.085       .  S
C1767      C1768   1.401       .  A
C1767      C1772   1.411       .  A
C1768      C1769   1.403       .  A
C1768      H1783   1.085       .  S
C1769      C1770   1.417       .  A
C1769      C1773   1.444       .  S
C1770      C1771   1.407       .  A
C1771      C1772   1.406       .  A
C1771      H1784   1.084       .  S
C1772      C1774   1.444       .  S
C1773      N1777   1.157       .  T
C1774      N1778   1.157       .  T
C1775      N1780   1.157       .  T
C1776      N1779   1.158       .  T
C1785      C1786   1.411       .  A
C1785      C1790   1.407       .  A
C1785      C1799   1.443       .  S
C1786      C1791   1.491       .  S
C1786      C1787   1.403       .  A
C1787      C1788   1.404       .  A
C1787      H1806   1.085       .  S
C1788      C1789   1.415       .  A
C1788      C1800   1.444       .  S
C1789      C1790   1.406       .  A
C1790      H1805   1.084       .  S
C1791      C1792   1.401       .  A
C1791      C1796   1.412       .  A
C1792      C1793   1.401       .  A
C1792      H1807   1.085       .  S
C1793      C1794   1.415       .  A
C1793      C1797   1.444       .  S
C1794      C1795   1.408       .  A
C1795      C1796   1.409       .  A
C1795      H1808   1.084       .  S
C1796      C1798   1.443       .  S
C1797      N1801   1.157       .  T
C1798      N1802   1.157       .  T
C1799      N1804   1.157       .  T
C1800      N1803   1.157       .  T
C1809      C1810   1.413       .  A
C1809      C1814   1.408   1_556  A
C1809      C1823   1.444       .  S
C1810      C1815   1.492       .  S
C1810      C1811   1.399       .  A
C1811      C1812   1.398   1_556  A
C1811      H1830   1.085       .  S
C1812      C1813   1.421       .  A
C1812      C1824   1.444       .  S
C1813      C1814   1.409       .  A
C1814      H1829   1.084       .  S
C1815      C1816   1.407       .  A
C1815      C1820   1.410       .  A
C1816      C1817   1.406       .  A
C1816      H1831   1.085       .  S
C1817      C1818   1.416       .  A
C1817      C1821   1.443       .  S
C1818      C1819   1.409       .  A
C1819      C1820   1.398       .  A
C1819      H1832   1.085       .  S
C1820      C1822   1.444       .  S
C1821      N1825   1.157       .  T
C1822      N1826   1.157       .  T
C1823      N1828   1.157       .  T
C1824      N1827   1.157       .  T
C1833      C1834   1.409       .  A
C1833      C1838   1.400       .  A
C1833      C1847   1.444       .  S
C1834      C1839   1.491       .  S
C1834      C1835   1.405       .  A
C1835      C1836   1.407       .  A
C1835      H1854   1.086       .  S
C1836      C1837   1.417       .  A
C1836      C1848   1.443       .  S
C1837      C1838   1.409       .  A
C1838      H1853   1.085       .  S
C1839      C1840   1.404       .  A
C1839      C1844   1.408       .  A
C1840      C1841   1.407       .  A
C1840      H1855   1.103       .  S
C1841      C1842   1.419       .  A
C1841      C1845   1.443       .  S
C1842      C1843   1.408       .  A
C1843      C1844   1.399       .  A
C1843      H1856   1.095       .  S
C1844      C1846   1.444       .  S
C1845      N1849   1.158       .  T
C1846      N1850   1.157       .  T
C1847      N1852   1.157       .  T
C1848      N1851   1.157       .  T
C1857      C1858   1.416       .  A
C1857      C1862   1.408       .  A
C1857      C1871   1.443       .  S
C1858      C1863   1.502       .  S
C1858      C1859   1.404       .  A
C1859      C1860   1.399       .  A
C1859      H1878   1.085       .  S
C1860      C1861   1.416       .  A
C1860      C1872   1.445       .  S
C1861      C1862   1.406       .  A
C1862      H1877   1.084       .  S
C1863      C1864   1.407       .  A
C1863      C1868   1.415       .  A
C1864      C1865   1.408       .  A
C1864      H1879   1.084       .  S
C1865      C1866   1.417       .  A
C1865      C1869   1.443       .  S
C1866      C1867   1.406       .  A
C1867      C1868   1.400       .  A
C1867      H1880   1.085       .  S
C1868      C1870   1.445       .  S
C1869      N1873   1.157       .  T
C1870      N1874   1.157       .  T
C1871      N1876   1.157       .  T
C1872      N1875   1.157       .  T
C1881      C1882   1.410       .  A
C1881      C1886   1.407       .  A
C1881      C1895   1.442       .  S
C1882      C1887   1.493       .  S
C1882      C1883   1.402       .  A
C1883      C1884   1.404       .  A
C1883      H1902   1.085       .  S
C1884      C1885   1.419       .  A
C1884      C1896   1.444       .  S
C1885      C1886   1.408       .  A
C1886      H1901   1.084       .  S
C1887      C1888   1.401       .  A
C1887      C1892   1.410       .  A
C1888      C1889   1.406       .  A
C1888      H1903   1.084       .  S
C1889      C1890   1.421       .  A
C1889      C1893   1.444       .  S
C1890      C1891   1.408       .  A
C1891      C1892   1.407       .  A
C1891      H1904   1.084       .  S
C1892      C1894   1.443       .  S
C1893      N1897   1.157       .  T
C1894      N1898   1.157       .  T
C1895      N1900   1.157       .  T
C1896      N1899   1.157       .  T
C1905      C1906   1.412       .  A
C1905      C1910   1.403       .  A
C1905      C1919   1.445       .  S
C1906      C1911   1.500       .  S
C1906      C1907   1.406       .  A
C1907      C1908   1.409       .  A
C1907      H1926   1.085       .  S
C1908      C1909   1.419       .  A
C1908      C1920   1.443       .  S
C1909      C1910   1.410       .  A
C1910      H1925   1.084       .  S
C1911      C1912   1.404   1_554  A
C1911      C1916   1.414   1_554  A
C1912      C1913   1.400       .  A
C1912      H1927   1.085   1_556  S
C1913      C1914   1.414       .  A
C1913      C1917   1.444       .  S
C1914      C1915   1.408       .  A
C1915      C1916   1.411       .  A
C1915      H1928   1.084       .  S
C1916      C1918   1.443   1_556  S
C1917      N1921   1.157       .  T
C1918      N1922   1.157       .  T
C1919      N1924   1.157       .  T
C1920      N1923   1.157       .  T
C1929      C1930   1.414       .  A
C1929      C1934   1.405       .  A
C1929      C1943   1.443       .  S
C1930      C1935   1.493       .  S
C1930      C1931   1.404       .  A
C1931      C1932   1.403       .  A
C1931      H1950   1.085       .  S
C1932      C1933   1.412       .  A
C1932      C1944   1.445       .  S
C1933      C1934   1.403       .  A
C1934      H1949   1.085       .  S
C1935      C1936   1.405       .  A
C1935      C1940   1.409       .  A
C1936      C1937   1.407       .  A
C1936      H1951   1.085       .  S
C1937      C1938   1.417       .  A
C1937      C1941   1.443       .  S
C1938      C1939   1.410       .  A
C1939      C1940   1.402       .  A
C1939      H1952   1.084       .  S
C1940      C1942   1.444       .  S
C1941      N1945   1.157       .  T
C1942      N1946   1.157       .  T
C1943      N1948   1.157       .  T
C1944      N1947   1.158       .  T
