geometry optimzed in LAMMPS
_audit_creation_date              2020-12-01 
_audit_creation_method            'lammps2cif' 
_symmetry_space_group_name_H-M    'P1' 
_symmetry_Int_Tables_number       1 
_symmetry_cell_setting            triclinic 
loop_ 
_symmetry_equiv_pos_as_xyz 
  x,y,z 
_cell_length_a                    26.88437159 
_cell_length_b                    26.03218645157592 
_cell_length_c                    27.56841158087337 
_cell_angle_alpha                 88.94804005805112 
_cell_angle_beta                  89.9480993709249 
_cell_angle_gamma                 90.95537907342617 
loop_ 
_atom_site_label 
_atom_site_type_symbol 
_atom_site_fract_x 
_atom_site_fract_y 
_atom_site_fract_z 
_atom_site_charge 
C1          C  0.19150661  0.24418727  0.22509393     0.32100
C2          C  0.25458573  0.30097453  0.27960647     0.32100
C3          C  0.24231825  0.22088538  0.23367152    -0.04100
C4          C  0.20350372  0.29790960  0.20440438    -0.04900
C5          C  0.17291297  0.25468234  0.27641572    -0.04800
C6          C  0.27552296  0.25026613  0.26127817    -0.04100
C7          C  0.23551493  0.32816728  0.23333273    -0.04900
C8          C  0.20591224  0.28371351  0.30527748    -0.04800
C9          C  0.32267544  0.23770742  0.24591949    -0.30200
N10         N  0.31868220  0.20157936  0.21134784     0.16300
C11         C  0.26999535  0.19163536  0.20329745    -0.30200
H12         H  0.25565537  0.16990208  0.17308642     0.18300
C13         C  0.21753675  0.37764306  0.22988252    -0.29100
N14         N  0.17799046  0.37887672  0.19965625     0.15100
C15         C  0.16941105  0.33061160  0.18411283    -0.29100
C16         C  0.19862974  0.26599323  0.35228280    -0.29400
N17         N  0.16236575  0.22919478  0.35322625     0.15600
H18         H  0.22331115  0.27376562  0.38238830     0.18200
C19         C  0.14706577  0.22177013  0.30707285    -0.29400
H20         H  0.12492820  0.18943801  0.29500085     0.18200
H21         H  0.13489064  0.31773049  0.16782135     0.18200
H22         H  0.35671390  0.25854700  0.25419030     0.18300
H23         H  0.22709624  0.40828261  0.25441519     0.18200
N24         N  0.02436142  0.52223716  0.21667186    -0.34500
N25         N  0.96843035  0.44437359  0.16276930    -0.55100
N26         N  0.88025785  0.49971747  0.18702564    -0.34500
N27         N  0.93401411  0.57563925  0.23770807    -0.55100
C28         C  0.06033401  0.49940546  0.19083264     0.29100
C29         C  0.04239932  0.56870293  0.23001161     0.29100
C30         C  0.86498003  0.46529713  0.15432436     0.29100
C31         C  0.84599339  0.53678896  0.18782319     0.29100
C32         C  0.01253493  0.42135732  0.16881468     0.37700
C33         C  0.93389100  0.40628236  0.15935040     0.37700
C34         C  0.96530051  0.60280373  0.26570712     0.37700
C35         C  0.88764544  0.59014150  0.24914135     0.37700
C36         C  0.10160128  0.53186942  0.18714562    -0.19800
C37         C  0.09031200  0.57567541  0.21188146    -0.19800
C38         C  0.82097197  0.48064531  0.13308611    -0.19800
C39         C  0.80869162  0.52591518  0.15444360    -0.19800
C40         C  0.00632715  0.36834224  0.16766825    -0.20900
C41         C  0.95613693  0.35874769  0.16232304    -0.20900
C42         C  0.93878265  0.63477840  0.29560004    -0.20900
C43         C  0.88937574  0.62685029  0.28496400    -0.20900
C44         C  0.05805140  0.44805151  0.17508300    -0.16200
C45         C  0.01716289  0.60383421  0.25967290    -0.16200
C46         C  0.84527501  0.57605232  0.22222529    -0.16200
C47         C  0.88270930  0.41524836  0.15412316    -0.16200
H48         H  0.13647067  0.52445571  0.16912721     0.16700
H49         H  0.11478791  0.60871500  0.21612508     0.16700
H50         H  0.79816106  0.45915399  0.10798040     0.16700
H51         H  0.77444786  0.54610781  0.14811469     0.16700
H52         H  0.03470001  0.33959559  0.17190230     0.15000
H53         H  0.93830238  0.32123630  0.16108764     0.15000
H54         H  0.95353817  0.66238566  0.32095054     0.15000
H55         H  0.85864431  0.64738276  0.30035606     0.15000
H56         H  0.99175843  0.50448389  0.22934663     0.28200
H57         H  0.90702890  0.49261326  0.21348338     0.28200
C58         C  0.69844736  0.75899586  0.28633294     0.32100
C59         C  0.75549194  0.81122250  0.22076425     0.32100
C60         C  0.67844453  0.81183440  0.27060340    -0.04100
C61         C  0.75156958  0.77055170  0.30257314    -0.04900
C62         C  0.70601341  0.73154578  0.23811488    -0.04800
C63         C  0.70795442  0.83890858  0.23549382    -0.04100
C64         C  0.78110541  0.79787771  0.26893684    -0.04900
C65         C  0.73533021  0.75931259  0.20370815    -0.04800
C66         C  0.67476371  0.85987545  0.20271753    -0.30200
N67         N  0.62779343  0.84593579  0.21507485     0.16300
C68         C  0.62969542  0.81973024  0.25780351    -0.30200
H69         H  0.59888330  0.79766365  0.27313891     0.18300
C70         C  0.81643722  0.82420316  0.29526933    -0.29100
N71         N  0.81000975  0.81295343  0.34305070     0.15100
C72         C  0.77019443  0.78054138  0.34774055    -0.29100
C73         C  0.76137544  0.72406044  0.17803724    -0.29400
N74         N  0.75120894  0.67680089  0.19618433     0.15600
H75         H  0.79327425  0.73315566  0.15521003     0.18200
C76         C  0.71752847  0.68065529  0.23236285    -0.29400
H77         H  0.70855355  0.65017265  0.25829021     0.18200
H78         H  0.75195572  0.76963536  0.38140756     0.18200
H79         H  0.68511471  0.87253659  0.16637130     0.18300
H80         H  0.84044869  0.85482714  0.28125022     0.18200
N81         N  0.18387523  0.02652643  0.43059245    -0.34500
N82         N  0.15857098  0.09407803  0.50839551    -0.55100
N83         N  0.22314190  0.03906653  0.57117910    -0.34500
N84         N  0.25152449  0.97103947  0.49362981    -0.55100
C85         C  0.16751639  0.06788576  0.40522645     0.29100
C86         C  0.20933468  0.99759150  0.39921518     0.29100
C87         C  0.21706939  0.08298946  0.59570471     0.29100
C88         C  0.26580616  0.01816207  0.58726635     0.29100
C89         C  0.12909184  0.11351331  0.47357994     0.37700
C90         C  0.14594801  0.11698426  0.54986472     0.37700
C91         C  0.24587431  0.93663846  0.45796639     0.37700
C92         C  0.26868063  0.94480272  0.53262269     0.37700
C93         C  0.18261259  0.06477116  0.35715477    -0.19800
C94         C  0.20847380  0.01997816  0.35328198    -0.19800
C95         C  0.25655943  0.09035361  0.62729427    -0.19800
C96         C  0.28769957  0.04961272  0.62151083    -0.19800
C97         C  0.09629742  0.14809638  0.49312801    -0.20900
C98         C  0.10672441  0.14995726  0.54192158    -0.20900
C99         C  0.25954343  0.88819281  0.47426699    -0.20900
C100        C  0.27418349  0.89339713  0.52173867    -0.20900
C101        C  0.13858470  0.10786667  0.42394172    -0.16200
C102        C  0.23065186  0.94992233  0.41053945    -0.16200
C103        C  0.28073514  0.96786523  0.57699541    -0.16200
C104        C  0.17571059  0.11530036  0.59158324    -0.16200
H105        H  0.17541265  0.09167714  0.32769668     0.16700
H106        H  0.22518870  0.00570295  0.32053768     0.16700
H107        H  0.26219464  0.12156328  0.65220649     0.16700
H108        H  0.32158849  0.04274130  0.64160033     0.16700
H109        H  0.06978623  0.17161287  0.47373886     0.15000
H110        H  0.09003820  0.17541717  0.56768257     0.15000
H111        H  0.25880345  0.85276427  0.45435022     0.15000
H112        H  0.28690267  0.86272879  0.54541365     0.15000
H113        H  0.17458190  0.01587049  0.46607056     0.28200
H114        H  0.19648936  0.02072871  0.54985473     0.28200
N115        N  0.84738889  0.98330445  0.45836113    -0.34500
N116        N  0.81495479  0.91826962  0.53986110    -0.55100
N117        N  0.82719625  0.00321004  0.60520481    -0.34500
N118        N  0.85739675  0.06812416  0.52442131    -0.55100
C119        C  0.82740911  0.94199102  0.43605778     0.29100
C120        C  0.84205036  0.02421535  0.42774334     0.29100
C121        C  0.79922579  0.97098514  0.63342932     0.29100
C122        C  0.82709867  0.04966089  0.62619186     0.29100
C123        C  0.82083655  0.88162847  0.50649382     0.37700
C124        C  0.80464007  0.89356660  0.58225885     0.37700
C125        C  0.87144126  0.09207364  0.48292623     0.37700
C126        C  0.86827321  0.10085911  0.56016854     0.37700
C127        C  0.81013282  0.95669554  0.39049684    -0.19800
C128        C  0.81946406  0.00844006  0.38525341    -0.19800
C129        C  0.78302808  0.99690665  0.67393966    -0.19800
C130        C  0.80047071  0.04651201  0.66928023    -0.19800
C131        C  0.81497722  0.83324264  0.52796200    -0.20900
C132        C  0.80418306  0.84084352  0.57593616    -0.20900
C133        C  0.89286076  0.13964472  0.49229321    -0.20900
C134        C  0.89096688  0.14520317  0.54155164    -0.20900
C135        C  0.82335665  0.89156407  0.45612341    -0.16200
C136        C  0.85651427  0.07553795  0.43708591    -0.16200
C137        C  0.85001316  0.09503552  0.60755862    -0.16200
C138        C  0.79046890  0.91819752  0.62507530    -0.16200
H139        H  0.79093241  0.93321255  0.36424887     0.16700
H140        H  0.80952799  0.03192536  0.35405626     0.16700
H141        H  0.76131196  0.98197182  0.70421609     0.16700
H142        H  0.79395716  0.07686411  0.69472723     0.16700
H143        H  0.81604256  0.79637599  0.51049367     0.15000
H144        H  0.79568515  0.81101635  0.60269092     0.15000
H145        H  0.90578466  0.16842025  0.46616533     0.15000
H146        H  0.90201572  0.17923601  0.56107380     0.15000
H147        H  0.86625755  0.98262233  0.49139659     0.28200
H148        H  0.84866353  0.99324519  0.57550222     0.28200
C149        C  0.23102163  0.81358769  0.77518609     0.32100
C150        C  0.29610879  0.76321310  0.71852589     0.32100
C151        C  0.25600889  0.76726593  0.79962791    -0.04100
C152        C  0.21001441  0.79174687  0.72819025    -0.04900
C153        C  0.27575320  0.84631000  0.75690302    -0.04800
C154        C  0.28958048  0.74097881  0.76982137    -0.04100
C155        C  0.24343480  0.76617490  0.69950581    -0.04900
C156        C  0.30967139  0.82010981  0.72664556    -0.04800
C157        C  0.32670732  0.72282857  0.79942835    -0.30200
N158        N  0.31742422  0.73640046  0.84551502     0.16300
C159        C  0.27532255  0.76405203  0.84589900    -0.30200
H160        H  0.26315745  0.78621783  0.87644605     0.18300
C161        C  0.21846470  0.74813074  0.66003025    -0.29100
N162        N  0.17022473  0.76113729  0.66439292     0.15100
C163        C  0.16468515  0.78859353  0.70560282    -0.29100
C164        C  0.32381318  0.85503225  0.69078278    -0.29400
N165        N  0.30080960  0.90018015  0.69779029     0.15600
H166        H  0.34137827  0.84429014  0.65726803     0.18200
C167        C  0.27277968  0.89539391  0.73824641    -0.29400
H168        H  0.24373737  0.92190211  0.74745790     0.18200
H169        H  0.12991624  0.80256502  0.71959315     0.18200
H170        H  0.36160970  0.70796427  0.78671067     0.18300
H171        H  0.23327234  0.72363691  0.63236052     0.18200
N172        N  0.06157690  0.57892577  0.66351364    -0.34500
N173        N  0.98443307  0.64214508  0.62206104    -0.55100
N174        N  0.91194888  0.56035881  0.63387393    -0.34500
N175        N  0.99052166  0.49626886  0.67534000    -0.55100
C176        C  0.08109707  0.62640983  0.67028552     0.29100
C177        C  0.08716586  0.54621417  0.69235539     0.29100
C178        C  0.88259257  0.60211625  0.63233776     0.29100
C179        C  0.88593082  0.52270182  0.65749040     0.29100
C180        C  0.02272011  0.67575484  0.61833892     0.37700
C181        C  0.94520444  0.66529699  0.60156141     0.37700
C182        C  0.03252917  0.46980547  0.68340619     0.37700
C183        C  0.95386257  0.46099075  0.66970503     0.37700
C184        C  0.12044170  0.62348467  0.70283893    -0.19800
C185        C  0.12450598  0.57273078  0.71644274    -0.19800
C186        C  0.83711819  0.59012217  0.65407667    -0.19800
C187        C  0.83915527  0.53995375  0.66967504    -0.19800
C188        C  0.00866097  0.71954821  0.59288037    -0.20900
C189        C  0.95928572  0.71278175  0.58199218    -0.20900
C190        C  0.02271285  0.41739994  0.68181484    -0.20900
C191        C  0.97256213  0.41181978  0.67349403    -0.20900
C192        C  0.06537046  0.67216462  0.64702173    -0.16200
C193        C  0.07812568  0.49290773  0.69682600    -0.16200
C194        C  0.90314590  0.47307050  0.66833432    -0.16200
C195        C  0.89618969  0.65131041  0.61355957    -0.16200
H196        H  0.14400171  0.65461379  0.71542811     0.16700
H197        H  0.15129312  0.55727463  0.74186404     0.16700
H198        H  0.80583604  0.61501341  0.65914338     0.16700
H199        H  0.80994955  0.51903726  0.68903022     0.16700
H200        H  0.03044679  0.75438850  0.58661895     0.15000
H201        H  0.93528086  0.74159511  0.56624163     0.15000
H202        H  0.04854568  0.38642751  0.68743409     0.15000
H203        H  0.95193513  0.37582824  0.67185386     0.15000
H204        H  0.03508344  0.56860206  0.63782807     0.28200
H205        H  0.94672121  0.55664433  0.61771061     0.28200
C206        C  0.71624643  0.30460279  0.73007327     0.32100
C207        C  0.78337282  0.25830458  0.79040478     0.32100
C208        C  0.75046307  0.26528893  0.70664885    -0.04100
C209        C  0.75418062  0.34110060  0.75452234    -0.04900
C210        C  0.69434495  0.27402761  0.77371545    -0.04800
C211        C  0.78436494  0.24249396  0.73792430    -0.04100
C212        C  0.78911591  0.31699930  0.78611548    -0.04900
C213        C  0.72895708  0.25023327  0.80391187    -0.04800
C214        C  0.81163515  0.20876988  0.71260787    -0.30200
N215        N  0.79547498  0.20949573  0.66610579     0.16300
C216        C  0.75794877  0.24381498  0.66189113    -0.30200
H217        H  0.73689041  0.25135739  0.62916325     0.18300
C218        C  0.83296811  0.34489677  0.78154910    -0.29100
N219        N  0.82668594  0.38377128  0.74925479     0.15100
C220        C  0.77931692  0.38182798  0.73272744    -0.29100
C221        C  0.70364324  0.22432702  0.84012646    -0.29400
N222        N  0.65436145  0.23192800  0.83330253     0.15600
H223        H  0.71999699  0.20296747  0.86996088     0.18200
C224        C  0.64817745  0.26245579  0.79318241    -0.29400
H225        H  0.61272549  0.27532693  0.77941105     0.18200
H226        H  0.76538665  0.40432272  0.70245125     0.18200
H227        H  0.83964458  0.18415604  0.72806866     0.18300
H228        H  0.86888863  0.33279368  0.79485485     0.18200
N229        N  0.46025218  0.74207929  0.10202146    -0.34500
N230        N  0.41245750  0.70507612  0.01663819    -0.55100
N231        N  0.50545505  0.70914991  0.96444549    -0.34500
N232        N  0.55426309  0.74900988  0.05006898    -0.55100
C233        C  0.41198198  0.74626958  0.11489597     0.29100
C234        C  0.48725673  0.77102766  0.13282496     0.29100
C235        C  0.47254066  0.71232458  0.92741984     0.29100
C236        C  0.54970836  0.72637011  0.94711923     0.29100
C237        C  0.37457045  0.69669689  0.04780268     0.37700
C238        C  0.39795101  0.68546431  0.97410587     0.37700
C239        C  0.57032648  0.75926768  0.09526004     0.37700
C240        C  0.59494610  0.73710910  0.02409608     0.37700
C241        C  0.40849865  0.77726524  0.15517921    -0.19800
C242        C  0.45606829  0.79294947  0.16642134    -0.19800
C243        C  0.49631113  0.73136708  0.88605258    -0.19800
C244        C  0.54520206  0.73999712  0.89844307    -0.19800
C245        C  0.33602833  0.67030083  0.02527513    -0.20900
C246        C  0.35104746  0.66293276  0.97845159    -0.20900
C247        C  0.62158427  0.75419188  0.09795312    -0.20900
C248        C  0.63718478  0.73995849  0.05273882    -0.20900
C249        C  0.37146107  0.72050299  0.09293347    -0.16200
C250        C  0.53948561  0.77546584  0.13334598    -0.16200
C251        C  0.59439691  0.72824637  0.97392537    -0.16200
C252        C  0.42189748  0.69764008  0.93003036    -0.16200
H253        H  0.37531763  0.78722223  0.17490987     0.16700
H254        H  0.46654552  0.81735256  0.19622727     0.16700
H255        H  0.48019165  0.73838444  0.85063884     0.16700
H256        H  0.57398323  0.75533622  0.87453009     0.16700
H257        H  0.29970509  0.66027999  0.03983301     0.15000
H258        H  0.32871115  0.64614995  0.94998884     0.15000
H259        H  0.64529318  0.76024066  0.12912115     0.15000
H260        H  0.67525746  0.73340186  0.04200947     0.15000
H261        H  0.47447999  0.71647050  0.07731757     0.28200
H262        H  0.49956152  0.69204451  0.99845834     0.28200
N263        N  0.48212461  0.17001271  0.08706315    -0.34500
N264        N  0.40892701  0.16277698  0.01124208    -0.55100
N265        N  0.48733140  0.15044522  0.93944497    -0.34500
N266        N  0.56104160  0.16195497  0.01555867    -0.55100
C267        C  0.44225884  0.19291938  0.10656790     0.29100
C268        C  0.52262552  0.18967735  0.10940115     0.29100
C269        C  0.44778232  0.15445785  0.90950527     0.29100
C270        C  0.52869816  0.15467879  0.91162270     0.29100
C271        C  0.37809325  0.16284844  0.04987119     0.37700
C272        C  0.38051179  0.15291522  0.97215493     0.37700
C273        C  0.58831043  0.15765481  0.05648961     0.37700
C274        C  0.59153211  0.15184491  0.97810628     0.37700
C275        C  0.45777762  0.22876439  0.14019171    -0.19800
C276        C  0.50864434  0.22657448  0.14208750    -0.19800
C277        C  0.46407902  0.15674163  0.86176966    -0.19800
C278        C  0.51501134  0.15653299  0.86306900    -0.19800
C279        C  0.32979130  0.15152014  0.03549377    -0.20900
C280        C  0.33121772  0.14607681  0.98610131    -0.20900
C281        C  0.63641357  0.14358076  0.04508572    -0.20900
C282        C  0.63867135  0.14090095  0.99534553    -0.20900
C283        C  0.39227851  0.18049611  0.09593833    -0.16200
C284        C  0.57156433  0.17294945  0.10256820    -0.16200
C285        C  0.57843386  0.15756313  0.92867113    -0.16200
C286        C  0.39734345  0.15720395  0.92377965    -0.16200
H287        H  0.43492865  0.25417173  0.16100652     0.16700
H288        H  0.53265810  0.24973042  0.16473295     0.16700
H289        H  0.44167386  0.15856436  0.82920967     0.16700
H290        H  0.53903090  0.15776750  0.83155432     0.16700
H291        H  0.29655509  0.14962183  0.05764742     0.15000
H292        H  0.29932540  0.13906423  0.96311161     0.15000
H293        H  0.66731123  0.13766215  0.06953550     0.15000
H294        H  0.67141422  0.13208154  0.97446128     0.15000
H295        H  0.48151527  0.13861616  0.06403094     0.28200
H296        H  0.48602546  0.14502814  0.97671691     0.28200
C297        C  0.70281943  0.73025629  0.74609831     0.32100
C298        C  0.76623031  0.78457206  0.80273463     0.32100
C299        C  0.70950998  0.70868860  0.79771850    -0.04100
C300        C  0.75579876  0.73572591  0.72764188    -0.04900
C301        C  0.68850015  0.78665540  0.75287108    -0.04800
C302        C  0.74209040  0.73714652  0.82726637    -0.04100
C303        C  0.78871688  0.76318162  0.75627183    -0.04900
C304        C  0.72149833  0.81503983  0.78318598    -0.04800
C305        C  0.72484448  0.73103689  0.87413807    -0.30200
N306        N  0.68443119  0.69924863  0.87429664     0.16300
C307        C  0.67468473  0.68597687  0.82807304    -0.30200
H308        H  0.64020882  0.66794999  0.81646104     0.18300
C309        C  0.83359350  0.76460122  0.73213348    -0.29100
N310        N  0.82793070  0.73916227  0.68974022     0.15100
C311        C  0.78016173  0.72185544  0.68674434    -0.29100
C312        C  0.72626735  0.86314329  0.76192466    -0.29400
N313        N  0.70101538  0.86480233  0.71966713     0.15600
H314        H  0.75642440  0.88976663  0.77001132     0.18200
C315        C  0.67673432  0.81949007  0.71470175    -0.29400
H316        H  0.66253364  0.80649140  0.68017852     0.18200
H317        H  0.76421759  0.69918104  0.65806827     0.18200
H318        H  0.73721711  0.75351147  0.90458766     0.18300
H319        H  0.86809788  0.78150307  0.74494929     0.18200
C320        C  0.70721959  0.26090333  0.29922963     0.32100
C321        C  0.76186061  0.20124840  0.24128750     0.32100
C322        C  0.68082042  0.21097475  0.28281991    -0.04100
C323        C  0.72358477  0.28617437  0.25044840    -0.04900
C324        C  0.75661768  0.24201719  0.32132204    -0.04800
C325        C  0.71052876  0.17901444  0.25399578    -0.04100
C326        C  0.75078692  0.25412548  0.22009519    -0.04900
C327        C  0.78520587  0.21258627  0.29005596    -0.04800
C328        C  0.67953322  0.15536580  0.22158997    -0.30200
N329        N  0.63300513  0.17264056  0.22710754     0.16300
C330        C  0.63308375  0.20622601  0.26399928    -0.30200
H331        H  0.60312464  0.23249302  0.27067142     0.18300
C332        C  0.78117516  0.28455767  0.19151141    -0.29100
N333        N  0.77476777  0.33405400  0.20328042     0.15100
C334        C  0.74073357  0.33543869  0.23965169    -0.29100
C335        C  0.81355070  0.18030753  0.31766397    -0.29400
N336        N  0.80346809  0.18752612  0.36495515     0.15600
H337        H  0.83382212  0.14849811  0.30328610     0.18200
C338        C  0.76801986  0.22400829  0.36762152    -0.29400
H339        H  0.74746192  0.23229838  0.40025849     0.18200
H340        H  0.73383985  0.36896396  0.26118072     0.18200
H341        H  0.69195708  0.13466403  0.19020512     0.18300
H342        H  0.81111898  0.27042186  0.16954911     0.18200
C343        C  0.26357645  0.32595430  0.74565276     0.32100
C344        C  0.19648799  0.26789756  0.79777740     0.32100
C345        C  0.28535561  0.29066860  0.78467085    -0.04100
C346        C  0.22503444  0.35652943  0.77411204    -0.04900
C347        C  0.23079262  0.28898448  0.71632190    -0.04800
C348        C  0.25097279  0.26110826  0.81090578    -0.04100
C349        C  0.18957834  0.32639796  0.80094136    -0.04900
C350        C  0.19662211  0.25935282  0.74313672    -0.04800
C351        C  0.27667189  0.23044111  0.84250562    -0.30200
N352        N  0.32590957  0.24070434  0.83629890     0.16300
C353        C  0.33175828  0.27784096  0.80143616    -0.30200
H354        H  0.36707478  0.29383875  0.78908686     0.18300
C355        C  0.14551191  0.35295698  0.79820022    -0.29100
N356        N  0.15266402  0.39714876  0.77234580     0.15100
C357        C  0.20080135  0.39951187  0.75785498    -0.29100
C358        C  0.17503963  0.22485924  0.71237555    -0.29400
N359        N  0.19538849  0.23234991  0.66753996     0.15600
H360        H  0.14848074  0.19504370  0.72280767     0.18200
C361        C  0.22920019  0.27164542  0.66954181    -0.29400
H362        H  0.25326456  0.28417125  0.63996344     0.18200
H363        H  0.21624022  0.42656066  0.73152351     0.18200
H364        H  0.26058257  0.20342000  0.86860842     0.18300
H365        H  0.10920541  0.33720518  0.80777891     0.18200
C366        C  0.24888838  0.71353973  0.30113223     0.32100
C367        C  0.19214189  0.77511668  0.24468322     0.32100
C368        C  0.24053944  0.69507941  0.24940527    -0.04100
C369        C  0.19546387  0.71987810  0.31964509    -0.04900
C370        C  0.26862065  0.76889781  0.29444257    -0.04800
C371        C  0.21152638  0.72721321  0.21985373    -0.04100
C372        C  0.16588954  0.75269017  0.29020458    -0.04900
C373        C  0.23911796  0.80082556  0.26480749    -0.04800
C374        C  0.22830434  0.72115063  0.17318816    -0.30200
N375        N  0.26456677  0.68558742  0.17345925     0.16300
C376        C  0.27224326  0.66964548  0.21958975    -0.30200
H377        H  0.30460732  0.64863825  0.23147630     0.18300
C378        C  0.11899083  0.73093554  0.28985327    -0.29100
N379        N  0.11861766  0.68602444  0.31537438     0.15100
C380        C  0.16439486  0.67976743  0.33441396    -0.29100
C381        C  0.24299556  0.84935608  0.28346667    -0.29400
N382        N  0.27287189  0.84845188  0.32292446     0.15600
H383        H  0.21932505  0.88101868  0.27335053     0.18200
C384        C  0.28874859  0.79996018  0.32972453    -0.29400
H385        H  0.30591140  0.78624570  0.36293576     0.18200
H386        H  0.17740263  0.64330759  0.34859155     0.18200
H387        H  0.22015437  0.74644354  0.14270705     0.18300
H388        H  0.09128866  0.74157982  0.26329963     0.18200
O389        O  0.02172253  0.06288203  0.09251953    -0.78100
O390        O  0.94293318  0.04458153  0.89529967    -0.78100
O391        O  0.09423516  0.05458527  0.95709260    -0.78100
O392        O  0.91370873  0.08410754  0.05427264    -0.78000
O393        O  0.02654787  0.07735207  0.92271604    -0.78200
O394        O  0.93514755  0.02609167  0.10885345    -0.78100
O395        O  0.91843419  0.09266407  0.95510964    -0.78100
O396        O  0.08961838  0.05335356  0.05248430    -0.78100
C397        C  0.06559310  0.07649711  0.08409088     1.11600
C398        C  0.92184190  0.08506067  0.91022202     1.11500
C399        C  0.07161715  0.08532250  0.92973413     1.11700
C400        C  0.91313392  0.06746887  0.09758999     1.11500
O401        O  0.95376212  0.93326395  0.05548074    -0.78100
O402        O  0.03215028  0.98163838  0.88154441    -0.78100
O403        O  0.06213371  0.94321225  0.05831499    -0.78100
O404        O  0.89002349  0.98458296  0.94807254    -0.78100
O405        O  0.95903526  0.94210606  0.94139150    -0.78100
O406        O  0.01930465  0.96341422  0.12480008    -0.78100
O407        O  0.88570314  0.97741376  0.04657373    -0.78000
O408        O  0.06159245  0.94699776  0.95017062    -0.78100
Co409      Co  0.99176706  0.99769236  0.06987095     1.51500
Co410      Co  0.99635185  0.00879708  0.93563702     1.51700
Co411      Co  0.06541647  0.00188238  0.00442421     1.51600
Co412      Co  0.90807283  0.03454841  0.00100793     1.51500
O413        O  0.98516017  0.02588033  0.00363117    -1.40000
C414        C  0.90707839  0.93676794  0.06044585     1.11600
C415        C  0.06156274  0.95058441  0.90302715     1.11600
C416        C  0.05281796  0.93732775  0.10455718     1.11600
C417        C  0.91252093  0.94449536  0.93548378     1.11600
O418        O  0.46545654  0.45728506  0.39445030    -0.78100
O419        O  0.44391648  0.56702116  0.57896704    -0.78100
O420        O  0.41823219  0.44626533  0.55281644    -0.78100
O421        O  0.41924223  0.57320161  0.47311855    -0.78000
O422        O  0.47062664  0.47004339  0.60838056    -0.78200
O423        O  0.46003237  0.56234839  0.40445170    -0.78100
O424        O  0.45888680  0.63985935  0.53908365    -0.78100
O425        O  0.41621841  0.43712254  0.45573331    -0.78100
C426        C  0.42484389  0.43794931  0.41084442     1.11600
C427        C  0.43711023  0.61602641  0.57348612     1.11500
C428        C  0.42923484  0.44990219  0.59695531     1.11700
C429        C  0.42136540  0.57666799  0.42723856     1.11500
O430        O  0.56534676  0.56346365  0.43695553    -0.78100
O431        O  0.56671290  0.47740753  0.56428382    -0.78100
O432        O  0.51686329  0.39571098  0.45543304    -0.78100
O433        O  0.54699054  0.59294850  0.55244425    -0.78100
O434        O  0.53235730  0.55267254  0.62252337    -0.78100
O435        O  0.56652568  0.45956423  0.43134491    -0.78100
O436        O  0.51413926  0.62209823  0.45893831    -0.78000
O437        O  0.52091964  0.40699281  0.55577988    -0.78100
Co438      Co  0.51359259  0.51057557  0.42255159     1.51500
Co439      Co  0.50721323  0.52194934  0.56549481     1.51700
Co440      Co  0.46930033  0.42731876  0.50448083     1.51600
Co441      Co  0.48148880  0.57781155  0.51169829     1.51500
O442        O  0.49331436  0.50274674  0.49509172    -1.40000
C443        C  0.55362616  0.60998422  0.43726573     1.11600
C444        C  0.56021181  0.42946714  0.57152632     1.11600
C445        C  0.55674295  0.41205446  0.43462117     1.11600
C446        C  0.55512785  0.58782908  0.59883706     1.11600
C447        C  0.16065069  0.80916241  0.21327499    -0.16400
C448        C  0.13482618  0.83697503  0.18796101     0.07600
C449        C  0.10480345  0.87017816  0.15827546     0.09500
C450        C  0.08017450  0.89948407  0.13331657    -0.17300
C451        C  0.28195774  0.67994372  0.33110949    -0.16400
C452        C  0.31162761  0.65377021  0.35360553     0.07600
C453        C  0.34841128  0.62443503  0.37908175     0.09500
C454        C  0.38089373  0.60117671  0.40070895    -0.17300
C455        C  0.30067037  0.35685801  0.71685201    -0.16400
C456        C  0.33070054  0.38105025  0.69205771     0.07600
C457        C  0.36579868  0.40789719  0.66141501     0.09500
C458        C  0.39526421  0.42876122  0.63354577    -0.17300
C459        C  0.16271381  0.23367363  0.82705471    -0.16400
C460        C  0.14025012  0.20191018  0.85192649     0.07600
C461        C  0.11685523  0.16243162  0.88107730     0.09500
C462        C  0.09713868  0.12778824  0.90472216    -0.17300
C463        C  0.88411064  0.09396347  0.13284448    -0.16400
C464        C  0.85606215  0.11683064  0.15867284     0.07600
C465        C  0.82161431  0.14442574  0.18652308     0.09500
C466        C  0.79314689  0.16910827  0.21030736    -0.17300
C467        C  0.59015679  0.37651076  0.41065247    -0.16400
C468        C  0.61801033  0.34980555  0.38709666     0.07600
C469        C  0.65016269  0.31960422  0.35743237     0.09500
C470        C  0.67652949  0.29376601  0.33150590    -0.17300
C471        C  0.66973659  0.69974542  0.71370660    -0.16400
C472        C  0.64485076  0.67535557  0.68502465     0.07600
C473        C  0.61605904  0.64650077  0.65109657     0.09500
C474        C  0.59009321  0.62078861  0.62438081    -0.17300
C475        C  0.80128762  0.81457215  0.83383222    -0.16400
C476        C  0.82863815  0.84100658  0.85874516     0.07600
C477        C  0.85976012  0.87398883  0.88727497     0.09500
C478        C  0.88504435  0.90419623  0.91038480    -0.17300
C479        C  0.36033006  0.17308355  0.88706387    -0.14400
C480        C  0.36535816  0.21904831  0.86434849    -0.29500
H481        H  0.32652355  0.15026148  0.88310229     0.14700
H482        H  0.39940950  0.24163349  0.86863890     0.15200
C483        C  0.60783603  0.17695024  0.14312738    -0.14400
C484        C  0.59552370  0.16948539  0.19027342    -0.29500
H485        H  0.64638090  0.18565995  0.13413152     0.14700
H486        H  0.55724825  0.16198425  0.20116536     0.15200
C487        C  0.64208394  0.72675776  0.94704723    -0.14400
C488        C  0.64858417  0.69185345  0.91241014    -0.29500
H489        H  0.66917024  0.75737550  0.95270842     0.14700
H490        H  0.62039073  0.66183288  0.90801905     0.15200
C491        C  0.30189479  0.68056911  0.13713760    -0.14400
C492        C  0.32269693  0.72271249  0.11691186    -0.29500
H493        H  0.31990092  0.64374681  0.13344584     0.14700
H494        H  0.30808448  0.76028173  0.12486317     0.15200
C495        C  0.89994574  0.12286113  0.87771822    -0.16400
C496        C  0.87730886  0.15762259  0.85821600     0.07600
C497        C  0.84736716  0.19798148  0.83893454     0.09500
C498        C  0.81949870  0.22907179  0.82053019    -0.17300
C499        C  0.68005607  0.33010391  0.69601909    -0.16400
C500        C  0.65289656  0.35183553  0.66666330     0.07600
C501        C  0.62187953  0.37809387  0.63157240     0.09500
C502        C  0.59505185  0.40095527  0.60266895    -0.17300
C503        C  0.61502931  0.21452799  0.86508835    -0.14400
C504        C  0.61873888  0.17209847  0.89366109    -0.29500
H505        H  0.58115589  0.23671275  0.86572191     0.14700
H506        H  0.65263567  0.15011070  0.89360289     0.15200
C507        C  0.11885683  0.46118567  0.71648855    -0.14400
C508        C  0.11286598  0.42874824  0.75468550    -0.29500
H509        H  0.15494974  0.46720819  0.69976078     0.14700
H510        H  0.07639665  0.42444136  0.77147860     0.15200
C511        C  0.86070053  0.69297558  0.62136237    -0.14400
C512        C  0.86832656  0.72308731  0.65995234    -0.29500
H513        H  0.82401801  0.68856567  0.60561687     0.14700
H514        H  0.90557897  0.72615604  0.67513522     0.15200
C515        C  0.86589584  0.43427462  0.68467336    -0.14400
C516        C  0.86662819  0.41528349  0.73023548    -0.29500
H517        H  0.83463792  0.42653511  0.66092506     0.14700
H518        H  0.89824635  0.42365579  0.75352736     0.15200
C519        C  0.19340706  0.84088127  0.80521067    -0.16400
C520        C  0.16169174  0.86401705  0.82752423     0.07600
C521        C  0.12447070  0.89232053  0.85296392     0.09500
C522        C  0.09417759  0.91766105  0.87498073    -0.17300
C523        C  0.40483479  0.64393064  0.60558423    -0.16400
C524        C  0.38090367  0.67132231  0.63179712     0.07600
C525        C  0.35388980  0.70519191  0.66187682     0.09500
C526        C  0.32967015  0.73313242  0.68729737    -0.17300
C527        C  0.35025576  0.73156234  0.88617604    -0.14400
C528        C  0.39086919  0.70200306  0.88587941    -0.29500
H529        H  0.34099106  0.75196786  0.91897658     0.14700
H530        H  0.40239474  0.68231136  0.85355587     0.15200
C531        C  0.09036924  0.72014339  0.66080334    -0.14400
C532        C  0.13175252  0.73563321  0.63789973    -0.29500
H533        H  0.08181420  0.73395392  0.69669065     0.14700
H534        H  0.14135720  0.71781565  0.60382344     0.15200
C535        C  0.84953136  0.11477330  0.39827412    -0.14400
C536        C  0.81816178  0.15416688  0.40440723    -0.33300
H537        H  0.86638719  0.10751305  0.36346610     0.14700
H538        H  0.80089094  0.15915522  0.43964568     0.15200
C539        C  0.76679153  0.88659381  0.66396943    -0.14400
C540        C  0.71966471  0.89359378  0.67861881    -0.29500
H541        H  0.78885894  0.85691314  0.68132884     0.14700
H542        H  0.69597937  0.92110578  0.66017383     0.15200
C543        C  0.84713896  0.14103589  0.63722234    -0.14400
C544        C  0.81013669  0.17435146  0.62955666    -0.29500
H545        H  0.87034692  0.14212557  0.66923139     0.14700
H546        H  0.78736941  0.17110524  0.59713279     0.15200
C547        C  0.27427161  0.88626899  0.36015859    -0.14400
C548        C  0.23340379  0.91277289  0.37075172    -0.29500
H549        H  0.30735929  0.88996427  0.38249610     0.14700
H550        H  0.20022970  0.90835409  0.34872293     0.15200
C551        C  0.16809485  0.15296826  0.63000225    -0.14400
C552        C  0.18932133  0.19991465  0.62627304    -0.29500
H553        H  0.15240748  0.13865528  0.66391665     0.14700
H554        H  0.20763214  0.21131150  0.59246116     0.15200
C555        C  0.30558930  0.93674254  0.61539314    -0.14400
C556        C  0.29008789  0.93881148  0.66171734    -0.29500
H557        H  0.33157433  0.90779938  0.60447801     0.14700
H558        H  0.26228448  0.96675030  0.67118168     0.15200
C559        C  0.66679829  0.72993174  0.32257187    -0.16400
C560        C  0.64053182  0.70559781  0.35122804     0.07600
C561        C  0.60961294  0.67558938  0.38387913     0.09500
C562        C  0.58370762  0.64778467  0.40999325    -0.17300
C563        C  0.87824105  0.89971404  0.08945207    -0.16400
C564        C  0.85037856  0.87738480  0.11798432     0.07600
C565        C  0.81658147  0.85616280  0.15356434     0.09500
C566        C  0.78830528  0.83806110  0.18420745    -0.17300
C567        C  0.59060938  0.83777265  0.17840164    -0.14400
C568        C  0.56313438  0.79413309  0.17800972    -0.29500
H569        H  0.59192529  0.86182747  0.14573748     0.14700
H570        H  0.56179177  0.76791344  0.20894208     0.15200
C571        C  0.83283222  0.84248486  0.38075096    -0.14400
C572        C  0.81022540  0.84869726  0.42364315    -0.29500
H573        H  0.86501953  0.86657906  0.37153237     0.14700
H574        H  0.77817302  0.82520989  0.43390985     0.15200
C575        C  0.08548940  0.64327636  0.30649926    -0.14400
C576        C  0.04452301  0.64846850  0.27931694    -0.29500
H577        H  0.09694444  0.60490108  0.31743336     0.14700
H578        H  0.03026651  0.68618523  0.27045651     0.15200
C579        C  0.84590849  0.37238723  0.15903723    -0.14400
C580        C  0.80685120  0.37649760  0.18971617    -0.29500
H581        H  0.85382940  0.33655037  0.14157294     0.14700
H582        H  0.80121695  0.41242116  0.20826888     0.15200
C583        C  0.80037887  0.60701646  0.22720418    -0.14400
C584        C  0.78495116  0.63583116  0.18962222    -0.29500
H585        H  0.78532136  0.61233654  0.26325202     0.14700
H586        H  0.80468951  0.63417828  0.15522688     0.15200
C587        C  0.29049698  0.33259492  0.30861545    -0.16400
C588        C  0.32111811  0.35867599  0.33034857     0.07600
C589        C  0.35778041  0.38890571  0.35564391     0.09500
C590        C  0.38881773  0.41306362  0.37874549    -0.17300
C591        C  0.08883720  0.11703636  0.11195410    -0.16400
C592        C  0.10900642  0.14880277  0.13735930     0.07600
C593        C  0.13433285  0.18392461  0.16826764     0.09500
C594        C  0.15820475  0.21210721  0.19444365    -0.17300
C595        C  0.35261714  0.19250609  0.13134600    -0.14400
C596        C  0.35804620  0.18726388  0.17966541    -0.29500
H597        H  0.31750198  0.20641863  0.11734581     0.14700
H598        H  0.39286600  0.17460133  0.19537115     0.15200
C599        C  0.12702657  0.15106163  0.39070276    -0.14400
C600        C  0.15450868  0.19454558  0.39380852    -0.29500
H601        H  0.10506044  0.14274925  0.35881532     0.14700
H602        H  0.17743642  0.20009434  0.42586636     0.15200
C603        C  0.10435355  0.41928791  0.16690358    -0.14400
C604        C  0.14149404  0.41859136  0.19950718    -0.29500
H605        H  0.10448980  0.39240277  0.13727562     0.14700
H606        H  0.14119110  0.44493172  0.22962840     0.15200
loop_ 
_geom_bond_atom_site_label_1 
_geom_bond_atom_site_label_2 
_geom_bond_distance 
_geom_bond_site_symmetry_2 
_ccdc_geom_bond_type 
C1            C3   1.521       .  S
C1            C5   1.531       .  S
C1            C4   1.530       .  S
C1          C594   1.488       .  S
C2            C6   1.537       .  S
C2            C8   1.543       .  S
C2            C7   1.540       .  S
C2          C587   1.499       .  S
C3           C11   1.370       .  A
C3            C6   1.400       .  A
C4           C15   1.374       .  A
C4            C7   1.414       .  A
C5           C19   1.372       .  A
C5            C8   1.411       .  A
C6            C9   1.382       .  A
C7           C13   1.385       .  A
C8           C16   1.380       .  A
C9           N10   1.354       .  A
C9           H22   1.083       .  S
N10          C11   1.349       .  A
N10         C596   1.430       .  S
C11          H12   1.083       .  S
C13          N14   1.352       .  A
C13          H23   1.083       .  S
N14          C15   1.351       .  A
N14         C604   1.437       .  S
C15          H21   1.082       .  S
C16          N17   1.355       .  A
C16          H18   1.083       .  S
N17          C19   1.354       .  A
N17         C600   1.437       .  S
C19          H20   1.080       .  S
N24          C29   1.353       .  A
N24          C28   1.353       .  A
N24          H56   1.041   1_455  S
N25          C32   1.347   1_655  A
N25          C33   1.352       .  A
N26          C31   1.346       .  A
N26          C30   1.343       .  A
N26          H57   1.041       .  S
N27          C34   1.343       .  A
N27          C35   1.347       .  A
C28          C36   1.386       .  A
C28          C44   1.414       .  A
C29          C45   1.419       .  A
C29          C37   1.389       .  A
C30          C38   1.382       .  A
C30          C47   1.395       .  A
C31          C46   1.407       .  A
C31          C39   1.391       .  A
C32          C44   1.409       .  A
C32          C40   1.388       .  A
C33          C47   1.407       .  A
C33          C41   1.384       .  A
C34          C42   1.387       .  A
C34          C45   1.404   1_655  A
C35          C43   1.387       .  A
C35          C46   1.407       .  A
C36          C37   1.377       .  A
C36          H48   1.082       .  S
C37          H49   1.082       .  S
C38          C39   1.372       .  A
C38          H50   1.082       .  S
C39          H51   1.080       .  S
C40          C41   1.377   1_455  A
C40          H52   1.082       .  S
C41          H53   1.082       .  S
C42          C43   1.374       .  A
C42          H54   1.082       .  S
C43          H55   1.082       .  S
C44         C603   1.483       .  S
C45         C576   1.476       .  S
C46         C583   1.470       .  S
C47         C579   1.483       .  S
C58          C60   1.540       .  S
C58          C62   1.536       .  S
C58          C61   1.524       .  S
C58         C559   1.498       .  S
C59          C63   1.536       .  S
C59          C65   1.530       .  S
C59          C64   1.533       .  S
C59         C566   1.495       .  S
C60          C68   1.375       .  A
C60          C63   1.421       .  A
C61          C72   1.370       .  A
C61          C64   1.397       .  A
C62          C76   1.377       .  A
C62          C65   1.413       .  A
C63          C66   1.382       .  A
C64          C70   1.377       .  A
C65          C73   1.370       .  A
C66          N67   1.350       .  A
C66          H79   1.084       .  S
N67          C68   1.352       .  A
N67         C567   1.439       .  S
C68          H69   1.081       .  S
C70          N71   1.354       .  A
C70          H80   1.083       .  S
N71          C72   1.356       .  A
N71         C571   1.436       .  S
C72          H78   1.080       .  S
C73          N74   1.343       .  A
C73          H75   1.084       .  S
N74          C76   1.353       .  A
N74         C584   1.426       .  S
C76          H77   1.082       .  S
N81          C86   1.351   1_545  A
N81          C85   1.353       .  A
N81         H113   1.041       .  S
N82          C89   1.342       .  A
N82          C90   1.345       .  A
N83          C88   1.350       .  A
N83          C87   1.351       .  A
N83         H114   1.042       .  S
N84          C91   1.349       .  A
N84          C92   1.349       .  A
C85          C93   1.390       .  A
C85         C101   1.414       .  A
C86         C102   1.406       .  A
C86          C94   1.385   1_565  A
C87          C95   1.387       .  A
C87         C104   1.409       .  A
C88         C103   1.409   1_545  A
C88          C96   1.386       .  A
C89         C101   1.403       .  A
C89          C97   1.386       .  A
C90         C104   1.402       .  A
C90          C98   1.386       .  A
C91          C99   1.387       .  A
C91         C102   1.409       .  A
C92         C100   1.387       .  A
C92         C103   1.408       .  A
C93          C94   1.373       .  A
C93         H105   1.082       .  S
C94         H106   1.083       .  S
C95          C96   1.374       .  A
C95         H107   1.082       .  S
C96         H108   1.082       .  S
C97          C98   1.376       .  A
C97         H109   1.082       .  S
C98         H110   1.082       .  S
C99         C100   1.375       .  A
C99         H111   1.082       .  S
C100        H112   1.082       .  S
C101        C599   1.475       .  S
C102        C548   1.478       .  S
C103        C555   1.487       .  S
C104        C551   1.473       .  S
N115        C120   1.356   1_565  A
N115        C119   1.352       .  A
N115        H147   1.043       .  S
N116        C123   1.348       .  A
N116        C124   1.350       .  A
N117        C122   1.350       .  A
N117        C121   1.352   1_545  A
N117        H148   1.041   1_545  S
N118        C125   1.344       .  A
N118        C126   1.344       .  A
C119        C127   1.389       .  A
C119        C135   1.418       .  A
C120        C136   1.414       .  A
C120        C128   1.386       .  A
C121        C129   1.389       .  A
C121        C138   1.413       .  A
C122        C137   1.411       .  A
C122        C130   1.387       .  A
C123        C135   1.409       .  A
C123        C131   1.388       .  A
C124        C138   1.409       .  A
C124        C132   1.387       .  A
C125        C133   1.386       .  A
C125        C136   1.399       .  A
C126        C134   1.387       .  A
C126        C137   1.400       .  A
C127        C128   1.371   1_565  A
C127        H139   1.082       .  S
C128        H140   1.082       .  S
C129        C130   1.370   1_565  A
C129        H141   1.081       .  S
C130        H142   1.083       .  S
C131        C132   1.372       .  A
C131        H143   1.082       .  S
C132        H144   1.083       .  S
C133        C134   1.369       .  A
C133        H145   1.082       .  S
C134        H146   1.083       .  S
C135        C572   1.482       .  S
C136        C535   1.480       .  S
C137        C543   1.465       .  S
C138        C539   1.477       .  S
C149        C151   1.535       .  S
C149        C153   1.541       .  S
C149        C152   1.529       .  S
C149        C519   1.502       .  S
C150        C154   1.527       .  S
C150        C156   1.540       .  S
C150        C155   1.513       .  S
C150        C526   1.488       .  S
C151        C159   1.379       .  A
C151        C154   1.414       .  A
C152        C163   1.371       .  A
C152        C155   1.383       .  A
C153        C167   1.372       .  A
C153        C156   1.426       .  A
C154        C157   1.374       .  A
C155        C161   1.366       .  A
C156        C164   1.380       .  A
C157        N158   1.349       .  A
C157        H170   1.081       .  S
N158        C159   1.352       .  A
N158        C527   1.432       .  S
C159        H160   1.083       .  S
C161        N162   1.352       .  A
C161        H171   1.083       .  S
N162        C163   1.363       .  A
N162        C532   1.428       .  S
C163        H169   1.082       .  S
C164        N165   1.354       .  A
C164        H166   1.081       .  S
N165        C167   1.348       .  A
N165        C556   1.434       .  S
C167        H168   1.084       .  S
N172        C177   1.351       .  A
N172        C176   1.351       .  A
N172        H204   1.040       .  S
N173        C180   1.342   1_655  A
N173        C181   1.343       .  A
N174        C179   1.352       .  A
N174        C178   1.354       .  A
N174        H205   1.042       .  S
N175        C182   1.349   1_655  A
N175        C183   1.347       .  A
C176        C184   1.390       .  A
C176        C192   1.414       .  A
C177        C193   1.408       .  A
C177        C185   1.386       .  A
C178        C186   1.389       .  A
C178        C195   1.415       .  A
C179        C194   1.407       .  A
C179        C187   1.385       .  A
C180        C192   1.397       .  A
C180        C188   1.386       .  A
C181        C195   1.399       .  A
C181        C189   1.386       .  A
C182        C190   1.387       .  A
C182        C193   1.409       .  A
C183        C191   1.385       .  A
C183        C194   1.405       .  A
C184        C185   1.373       .  A
C184        H196   1.083       .  S
C185        H197   1.083       .  S
C186        C187   1.369       .  A
C186        H198   1.081       .  S
C187        H199   1.083       .  S
C188        C189   1.370   1_455  A
C188        H200   1.082       .  S
C189        H201   1.083       .  S
C190        C191   1.374   1_455  A
C190        H202   1.082       .  S
C191        H203   1.082       .  S
C192        C531   1.465       .  S
C193        C507   1.480       .  S
C194        C515   1.475       .  S
C195        C511   1.475       .  S
C206        C208   1.538       .  S
C206        C210   1.541       .  S
C206        C209   1.546       .  S
C206        C499   1.506       .  S
C207        C211   1.512       .  S
C207        C213   1.519       .  S
C207        C212   1.536       .  S
C207        C498   1.488       .  S
C208        C216   1.380       .  A
C208        C211   1.388       .  A
C209        C220   1.376       .  A
C209        C212   1.427       .  A
C210        C224   1.378       .  A
C210        C213   1.394       .  A
C211        C214   1.356       .  A
C212        C218   1.379       .  A
C213        C221   1.369       .  A
C214        N215   1.354       .  A
C214        H227   1.080       .  S
N215        C216   1.362       .  A
N215        C544   1.433       .  S
C216        H217   1.082       .  S
C218        N219   1.348       .  A
C218        H228   1.083       .  S
N219        C220   1.353       .  A
N219        C516   1.433       .  S
C220        H226   1.082       .  S
C221        N222   1.356       .  A
C221        H223   1.082       .  S
N222        C224   1.362       .  A
N222        C503   1.435       .  S
C224        H225   1.082       .  S
N229        C234   1.350       .  A
N229        C233   1.352       .  A
N229        H261   1.039       .  S
N230        C237   1.344       .  A
N230        C238   1.343   1_554  A
N231        C236   1.348       .  A
N231        C235   1.354       .  A
N231        H262   1.041       .  S
N232        C239   1.349       .  A
N232        C240   1.350       .  A
C233        C241   1.389       .  A
C233        C249   1.412       .  A
C234        C250   1.407       .  A
C234        C242   1.386       .  A
C235        C243   1.386       .  A
C235        C252   1.409       .  A
C236        C251   1.412       .  A
C236        C244   1.388       .  A
C237        C249   1.403       .  A
C237        C245   1.387       .  A
C238        C252   1.403       .  A
C238        C246   1.386       .  A
C239        C247   1.388       .  A
C239        C250   1.412       .  A
C240        C248   1.385       .  A
C240        C251   1.406   1_554  A
C241        C242   1.373       .  A
C241        H253   1.082       .  S
C242        H254   1.082       .  S
C243        C244   1.374       .  A
C243        H255   1.082       .  S
C244        H256   1.083       .  S
C245        C246   1.370   1_554  A
C245        H257   1.082       .  S
C246        H258   1.083       .  S
C247        C248   1.374       .  A
C247        H259   1.083       .  S
C248        H260   1.082       .  S
C249        C492   1.470       .  S
C250        C568   1.473       .  S
C251        C487   1.482       .  S
C252        C528   1.480       .  S
N263        C268   1.349       .  A
N263        C267   1.351       .  A
N263        H295   1.044       .  S
N264        C271   1.349       .  A
N264        C272   1.347   1_554  A
N265        C270   1.352       .  A
N265        C269   1.351       .  A
N265        H296   1.035       .  S
N266        C273   1.350       .  A
N266        C274   1.350   1_554  A
C267        C275   1.387       .  A
C267        C283   1.409       .  A
C268        C284   1.406       .  A
C268        C276   1.385       .  A
C269        C277   1.387       .  A
C269        C286   1.415       .  A
C270        C285   1.419       .  A
C270        C278   1.389       .  A
C271        C283   1.409       .  A
C271        C279   1.387       .  A
C272        C286   1.410       .  A
C272        C280   1.387       .  A
C273        C281   1.387       .  A
C273        C284   1.414       .  A
C274        C282   1.386       .  A
C274        C285   1.414       .  A
C275        C276   1.371       .  A
C275        H287   1.082       .  S
C276        H288   1.082       .  S
C277        C278   1.370       .  A
C277        H289   1.082       .  S
C278        H290   1.082       .  S
C279        C280   1.372   1_554  A
C279        H291   1.082       .  S
C280        H292   1.082       .  S
C281        C282   1.376   1_554  A
C281        H293   1.081       .  S
C282        H294   1.082       .  S
C283        C595   1.486       .  S
C284        C483   1.488       .  S
C285        C504   1.490       .  S
C286        C479   1.478       .  S
C297        C299   1.532       .  S
C297        C301   1.539       .  S
C297        C300   1.516       .  S
C297        C471   1.491       .  S
C298        C302   1.531       .  S
C298        C304   1.544       .  S
C298        C303   1.534       .  S
C298        C475   1.495       .  S
C299        C307   1.374       .  A
C299        C302   1.408       .  A
C300        C311   1.361       .  A
C300        C303   1.385       .  A
C301        C315   1.384       .  A
C301        C304   1.426       .  A
C302        C305   1.378       .  A
C303        C309   1.377       .  A
C304        C312   1.377       .  A
C305        N306   1.355       .  A
C305        H318   1.082       .  S
N306        C307   1.351       .  A
N306        C488   1.433       .  S
C307        H308   1.083       .  S
C309        N310   1.361       .  A
C309        H319   1.082       .  S
N310        C311   1.357       .  A
N310        C512   1.434       .  S
C311        H317   1.080       .  S
C312        N313   1.349       .  A
C312        H314   1.084       .  S
N313        C315   1.348       .  A
N313        C540   1.431       .  S
C315        H316   1.084       .  S
C320        C322   1.546       .  S
C320        C324   1.546       .  S
C320        C323   1.547       .  S
C320        C470   1.502       .  S
C321        C325   1.526       .  S
C321        C327   1.516       .  S
C321        C326   1.520       .  S
C321        C466   1.478       .  S
C322        C330   1.389       .  A
C322        C325   1.417       .  A
C323        C334   1.383       .  A
C323        C326   1.406       .  A
C324        C338   1.388       .  A
C324        C327   1.401       .  A
C325        C328   1.370       .  A
C326        C332   1.368       .  A
C327        C335   1.366       .  A
C328        N329   1.346       .  A
C328        H341   1.083       .  S
N329        C330   1.353       .  A
N329        C484   1.434       .  S
C330        H331   1.083       .  S
C332        N333   1.348       .  A
C332        H342   1.080       .  S
N333        C334   1.358       .  A
N333        C580   1.434       .  S
C334        H340   1.083       .  S
C335        N336   1.349       .  A
C335        H337   1.080       .  S
N336        C338   1.359       .  A
N336        C536   1.439       .  S
C338        H339   1.082       .  S
C343        C345   1.525       .  S
C343        C347   1.536       .  S
C343        C346   1.540       .  S
C343        C455   1.490       .  S
C344        C348   1.522       .  S
C344        C350   1.527       .  S
C344        C349   1.541       .  S
C344        C459   1.488       .  S
C345        C353   1.375       .  A
C345        C348   1.387       .  A
C346        C357   1.372       .  A
C346        C349   1.422       .  A
C347        C361   1.375       .  A
C347        C350   1.393       .  A
C348        C351   1.367       .  A
C349        C355   1.383       .  A
C350        C358   1.369       .  A
C351        N352   1.356       .  A
C351        H364   1.082       .  S
N352        C353   1.358       .  A
N352        C480   1.430       .  S
C353        H354   1.083       .  S
C355        N356   1.353       .  A
C355        H365   1.083       .  S
N356        C357   1.354       .  A
N356        C508   1.440       .  S
C357        H363   1.080       .  S
C358        N359   1.361       .  A
C358        H360   1.081       .  S
N359        C361   1.359       .  A
N359        C552   1.437       .  S
C361        H362   1.083       .  S
C366        C368   1.529       .  S
C366        C370   1.535       .  S
C366        C369   1.536       .  S
C366        C451   1.496       .  S
C367        C371   1.532       .  S
C367        C373   1.529       .  S
C367        C372   1.540       .  S
C367        C447   1.500       .  S
C368        C376   1.370       .  A
C368        C371   1.403       .  A
C369        C380   1.381       .  A
C369        C372   1.421       .  A
C370        C384   1.381       .  A
C370        C373   1.409       .  A
C371        C374   1.376       .  A
C372        C378   1.374       .  A
C373        C381   1.375       .  A
C374        N375   1.356       .  A
C374        H387   1.083       .  S
N375        C376   1.348       .  A
N375        C491   1.426       .  S
C376        H377   1.083       .  S
C378        N379   1.353       .  A
C378        H388   1.081       .  S
N379        C380   1.350       .  A
N379        C575   1.438       .  S
C380        H386   1.083       .  S
C381        N382   1.353       .  A
C381        H383   1.082       .  S
N382        C384   1.349       .  A
N382        C547   1.435       .  S
C384        H385   1.083       .  S
O389        C397   1.246       .  A
O389       Co409   1.978   1_445  S
O390        C398   1.279       .  A
O390       Co410   2.044       .  S
O391        C399   1.254       .  A
O391       Co411   2.020   1_556  S
O392        C400   1.263       .  A
O392       Co412   1.977       .  S
O393        C399   1.242       .  A
O393       Co410   1.975   1_455  S
O394        C400   1.271       .  A
O394       Co409   2.020   1_545  S
O395        C398   1.260       .  A
O395       Co412   1.970   1_556  S
O396        C397   1.253       .  A
O396       Co411   2.003       .  S
C397        C591   1.450       .  S
C398        C495   1.451       .  S
C399        C462   1.454       .  S
C400        C463   1.439       .  S
O401        C414   1.267       .  A
O401       Co409   1.996       .  S
O402        C415   1.278       .  A
O402       Co410   1.926   1_465  S
O403        C416   1.305       .  A
O403       Co411   2.112   1_565  S
O404        C417   1.269       .  A
O404       Co412   2.027   1_566  S
O405        C417   1.264       .  A
O405       Co410   1.994   1_565  S
O406        C416   1.272       .  A
O406       Co409   1.901   1_455  S
O407        C414   1.266       .  A
O407       Co412   2.013   1_565  S
O408        C415   1.301       .  A
O408       Co411   2.089   1_566  S
Co409       O413   1.965   1_565  S
Co410       O413   1.959   1_556  S
Co411       O413   2.256   1_455  S
Co412       O413   2.090       .  S
C414        C563   1.455       .  S
C415        C522   1.466       .  S
C416        C450   1.462       .  S
C417        C478   1.458       .  S
O418        C426   1.274       .  A
O418       Co438   2.045       .  S
O419        C427   1.298       .  A
O419       Co439   2.119       .  S
O420        C428   1.257       .  A
O420       Co440   1.987       .  S
O421        C429   1.268       .  A
O421       Co441   1.987       .  S
O422        C428   1.265       .  A
O422       Co439   2.021       .  S
O423        C429   1.279       .  A
O423       Co438   2.045       .  S
O424        C427   1.262       .  A
O424       Co441   1.904       .  S
O425        C426   1.259       .  A
O425       Co440   1.978       .  S
C426        C590   1.464       .  S
C427        C523   1.451       .  S
C428        C458   1.455       .  S
C429        C454   1.461       .  S
O430        C443   1.257       .  A
O430       Co438   1.987       .  S
O431        C444   1.269       .  A
O431       Co439   1.992       .  S
O432        C445   1.278       .  A
O432       Co440   2.053       .  S
O433        C446   1.303       .  A
O433       Co441   2.125       .  S
O434        C446   1.264       .  A
O434       Co439   1.897       .  S
O435        C445   1.262       .  A
O435       Co438   1.975       .  S
O436        C443   1.265       .  A
O436       Co441   2.029       .  S
O437        C444   1.279       .  A
O437       Co440   2.051       .  S
Co438       O442   2.078       .  S
Co439       O442   2.046       .  S
Co440       O442   2.068       .  S
Co441       O442   2.045       .  S
C443        C562   1.460       .  S
C444        C502   1.472       .  S
C445        C467   1.466       .  S
C446        C474   1.453       .  S
C447        C448   1.222       .  T
C448        C449   1.438       .  S
C449        C450   1.222       .  T
C451        C452   1.220       .  T
C452        C453   1.436       .  S
C453        C454   1.221       .  T
C455        C456   1.217       .  T
C456        C457   1.431       .  S
C457        C458   1.217       .  T
C459        C460   1.217       .  T
C460        C461   1.430       .  S
C461        C462   1.217       .  T
C463        C464   1.208       .  T
C464        C465   1.416       .  S
C465        C466   1.208       .  T
C467        C468   1.224       .  T
C468        C469   1.442       .  S
C469        C470   1.224       .  T
C471        C472   1.217       .  T
C472        C473   1.430       .  S
C473        C474   1.217       .  T
C475        C476   1.220       .  T
C476        C477   1.435       .  S
C477        C478   1.220       .  T
C479        C480   1.345       .  D
C479        H481   1.084       .  S
C480        H482   1.087       .  S
C483        C484   1.351       .  D
C483        H485   1.085       .  S
C484        H486   1.085       .  S
C487        C488   1.343       .  D
C487        H489   1.084       .  S
C488        H490   1.088       .  S
C491        C492   1.336       .  D
C491        H493   1.087       .  S
C492        H494   1.086       .  S
C495        C496   1.216       .  T
C496        C497   1.429       .  S
C497        C498   1.216       .  T
C499        C500   1.227       .  T
C500        C501   1.447       .  S
C501        C502   1.228       .  T
C503        C504   1.350       .  D
C503        H505   1.087       .  S
C504        H506   1.084       .  S
C507        C508   1.345       .  D
C507        H509   1.082       .  S
C508        H510   1.087       .  S
C511        C512   1.347       .  D
C511        H513   1.083       .  S
C512        H514   1.088       .  S
C515        C516   1.342       .  D
C515        H517   1.084       .  S
C516        H518   1.087       .  S
C519        C520   1.224       .  T
C520        C521   1.442       .  S
C521        C522   1.224       .  T
C523        C524   1.216       .  T
C524        C525   1.428       .  S
C525        C526   1.216       .  T
C527        C528   1.346       .  D
C527        H529   1.088       .  S
C528        H530   1.084       .  S
C531        C532   1.332       .  D
C531        H533   1.085       .  S
C532        H534   1.088       .  S
C535        C536   1.351       .  D
C535        H537   1.082       .  S
C536        H538   1.087       .  S
C539        C540   1.346       .  D
C539        H541   1.086       .  S
C540        H542   1.086       .  S
C543        C544   1.345       .  D
C543        H545   1.082       .  S
C544        H546   1.088       .  S
C547        C548   1.342       .  D
C547        H549   1.086       .  S
C548        H550   1.085       .  S
C551        C552   1.342       .  D
C551        H553   1.083       .  S
C552        H554   1.088       .  S
C555        C556   1.345       .  D
C555        H557   1.082       .  S
C556        H558   1.087       .  S
C559        C560   1.221       .  T
C560        C561   1.436       .  S
C561        C562   1.221       .  T
C563        C564   1.219       .  T
C564        C565   1.433       .  S
C565        C566   1.219       .  T
C567        C568   1.345       .  D
C567        H569   1.088       .  S
C568        H570   1.083       .  S
C571        C572   1.343       .  D
C571        H573   1.087       .  S
C572        H574   1.083       .  S
C575        C576   1.340       .  D
C575        H577   1.088       .  S
C576        H578   1.084       .  S
C579        C580   1.355       .  D
C579        H581   1.082       .  S
C580        H582   1.087       .  S
C583        C584   1.338       .  D
C583        H585   1.085       .  S
C584        H586   1.088       .  S
C587        C588   1.223       .  T
C588        C589   1.440       .  S
C589        C590   1.223       .  T
C591        C592   1.215       .  T
C592        C593   1.426       .  S
C593        C594   1.215       .  T
C595        C596   1.345       .  D
C595        H597   1.085       .  S
C596        H598   1.085       .  S
C599        C600   1.346       .  D
C599        H601   1.083       .  S
C600        H602   1.088       .  S
C603        C604   1.344       .  D
C603        H605   1.085       .  S
C604        H606   1.087       .  S
