geometry optimzed in LAMMPS
_audit_creation_date              2020-12-01 
_audit_creation_method            'lammps2cif' 
_symmetry_space_group_name_H-M    'P1' 
_symmetry_Int_Tables_number       1 
_symmetry_cell_setting            triclinic 
loop_ 
_symmetry_equiv_pos_as_xyz 
  x,y,z 
_cell_length_a                    38.29036175 
_cell_length_b                    37.432545747360564 
_cell_length_c                    68.53515344595671 
_cell_angle_alpha                 89.85265606464617 
_cell_angle_beta                  89.91085716022342 
_cell_angle_gamma                 89.98631740331412 
loop_ 
_atom_site_label 
_atom_site_type_symbol 
_atom_site_fract_x 
_atom_site_fract_y 
_atom_site_fract_z 
_atom_site_charge 
C1          C  0.42960092  0.30999183  0.34999849     0.03300
C2          C  0.45454171  0.33148446  0.34054268    -0.12900
C3          C  0.45780847  0.33076290  0.32013547     0.00800
C4          C  0.43577833  0.30850499  0.30925136    -0.11400
C5          C  0.40991946  0.28790966  0.31851634     0.03300
C6          C  0.40612453  0.28989746  0.33880114    -0.10800
H7          H  0.47306344  0.34661399  0.34914064     0.08900
H8          H  0.43904153  0.30702952  0.29357078     0.06400
H9          H  0.38684596  0.27337652  0.34609432     0.06200
C10         C  0.42014481  0.32421561  0.18669038     0.03300
C11         C  0.44674482  0.34195034  0.19682740    -0.12900
C12         C  0.45352843  0.33353055  0.21645610     0.00800
C13         C  0.43302168  0.30758123  0.22585629    -0.11400
C14         C  0.40613160  0.29002421  0.21582647     0.03300
C15         C  0.39966708  0.29867867  0.19626029    -0.10800
H16         H  0.46268058  0.36147268  0.18923513     0.08900
H17         H  0.43804226  0.30081996  0.24096595     0.06400
H18         H  0.37952406  0.28483834  0.18818033     0.06200
C19         C  0.19921229  0.31250651  0.35084416     0.03300
C20         C  0.17485922  0.33267837  0.34042043    -0.12900
C21         C  0.17079314  0.32796964  0.32029413     0.00800
C22         C  0.19114179  0.30220502  0.31062957    -0.11400
C23         C  0.21646057  0.28245554  0.32093017     0.03300
C24         C  0.22039204  0.28786497  0.34105612    -0.10800
H25         H  0.15885582  0.35184132  0.34817505     0.08900
H26         H  0.18788679  0.29817877  0.29508299     0.06400
H27         H  0.23917886  0.27231019  0.34927917     0.06200
C28         C  0.43926233  0.05130831  0.18303931     0.03300
C29         C  0.41546496  0.07272222  0.19334733    -0.12900
C30         C  0.41402183  0.07147083  0.21380041     0.00800
C31         C  0.43654178  0.04845983  0.22399935    -0.11400
C32         C  0.45927394  0.02567486  0.21384616     0.03300
C33         C  0.46010430  0.02685742  0.19338307    -0.10800
H34         H  0.40009640  0.09243802  0.18557306     0.08900
H35         H  0.43636495  0.04827422  0.23981898     0.06400
H36         H  0.47874642  0.01053505  0.18550998     0.06200
C37         C  0.48595113  0.35088915  0.31029754     0.42600
N38         N  0.02659550  0.36509012  0.29081251     0.01500
C39         C  0.13153282  0.01423417  0.29045239    -0.06400
H40         H  0.99805824  0.03864551  0.28171648     0.07000
C41         C  0.00156205  0.47143112  0.21832960    -0.06700
Co42       Co  0.06588630  0.42984771  0.30345465     0.74200
N43         N  0.02815985  0.49335221  0.28819201    -0.25900
Co44       Co  0.06558176  0.49227268  0.26603480     0.74100
C45         C  0.98790781  0.00493664  0.22450666     0.42700
N46         N  0.02620233  0.38534103  0.23323222     0.01100
N47         N  0.02668129  0.49025821  0.24464188     0.01200
N48         N  0.12806552  0.47631673  0.31536041    -0.46800
H49         H  0.99605983  0.40168748  0.32947260     0.07000
N50         N  0.02825260  0.46988410  0.30259257     0.01500
N51         N  0.10317989  0.48979310  0.24390671     0.01200
C52         C  0.14443629  0.50274423  0.22392442     0.42800
N53         N  0.02626791  0.36183387  0.24759715    -0.25400
C54         C  0.12896841  0.38313361  0.31634591    -0.06300
N55         N  0.00076710  0.34219128  0.29375590    -0.46500
N56         N  0.12809795  0.51348501  0.24039125    -0.46700
C57         C  0.14491457  0.34982380  0.30972797     0.42600
N58         N  0.10411528  0.46933207  0.30196665     0.01500
N59         N  0.10238000  0.36139576  0.24730117    -0.25400
N60         N  0.02752934  0.39059895  0.30405299    -0.25900
N61         N  0.10236192  0.38471968  0.23282480     0.01100
H62         H  0.13478991  0.31600141  0.25404717     0.07000
H63         H  0.13226676  0.45398605  0.20464087     0.07000
N64         N  0.10418259  0.49274244  0.28751603    -0.25900
N65         N  0.02678973  0.46475318  0.23137000    -0.25500
N66         N  0.10303720  0.36376895  0.29048298     0.01500
C67         C  0.98688361  0.00429887  0.30905907     0.42900
C68         C  0.00006878  0.33874971  0.24486380    -0.06800
N69         N  0.10228516  0.46418655  0.23071815    -0.25500
H70         H  0.99621235  0.45584193  0.20540972     0.07000
N71         N  0.00383484  0.47632193  0.31588052    -0.46800
H72         H  0.49382518  0.31587004  0.25404333     0.07000
C73         C  0.14555785  0.35019696  0.22670417     0.42700
C74         C  0.00150702  0.38538283  0.31682297    -0.06300
Co75       Co  0.06454613  0.36223010  0.26906538     0.73800
N76         N  0.00124754  0.37930337  0.22029815    -0.46500
C77         C  0.14560588  0.50538491  0.30900395     0.43000
N78         N  0.12739234  0.33927056  0.29367778    -0.46500
Co79       Co  0.06440436  0.42464358  0.23162412     0.73900
C80         C  0.12729513  0.47013518  0.21740831    -0.06800
C81         C  0.00357316  0.01579152  0.29088651    -0.06400
N82         N  0.10335518  0.38956631  0.30356116    -0.25900
N83         N  0.00476129  0.01472591  0.24095740    -0.46700
H84         H  0.13717107  0.03727297  0.28142843     0.07000
C85         C  0.12884406  0.33858195  0.24475395    -0.06800
Cl86       Cl  0.06514563  0.42729515  0.26754995    -0.49800
C87         C  0.48288840  0.35055160  0.22683927     0.42700
H88         H  0.13482386  0.39921540  0.32901039     0.07000
N89         N  0.12754201  0.37867199  0.21994232    -0.46500
C90         C  0.19813766  0.30907481  0.18578365     0.03300
C91         C  0.17501508  0.33179263  0.19573772    -0.12900
C92         C  0.17349969  0.33121858  0.21619399     0.00800
C93         C  0.19611406  0.30876831  0.22660913    -0.11400
C94         C  0.21966725  0.28650623  0.21681417     0.03300
C95         C  0.22105697  0.28724588  0.19641167    -0.10800
H96         H  0.15617684  0.34739292  0.18755998     0.08900
H97         H  0.19466423  0.30783168  0.24238666     0.06400
H98         H  0.23794556  0.26878477  0.18870298     0.06200
C99         C  0.42723375  0.03769241  0.34925103     0.03300
C100        C  0.40673142  0.06251198  0.33894420    -0.12900
C101        C  0.41188656  0.06784765  0.31890531     0.00800
C102        C  0.43709034  0.04770808  0.30911298    -0.11400
C103        C  0.95743979  0.02187483  0.31923311     0.03300
C104        C  0.45277415  0.01787774  0.33922775    -0.10800
H105        H  0.38735250  0.07819402  0.34665493     0.08900
H106        H  0.44056341  0.05126541  0.29356464     0.06400
H107        H  0.96608431  0.99660110  0.34725137     0.06200
C108        C  0.19144368  0.04969713  0.35116832     0.03300
C109        C  0.21695915  0.06969089  0.34128725    -0.12900
C110        C  0.21972538  0.06794438  0.32093276     0.00800
C111        C  0.19747295  0.04525156  0.31050332    -0.11400
C112        C  0.17274356  0.02407311  0.32024921     0.03300
C113        C  0.16994564  0.02622402  0.34063356    -0.10800
H114        H  0.23252436  0.08888936  0.34927708     0.08900
H115        H  0.19898322  0.04462366  0.29471089     0.06400
H116        H  0.14962367  0.01147802  0.34817669     0.06200
C117        C  0.20540796  0.03969276  0.18434493     0.03300
C118        C  0.22499206  0.06416202  0.19528174    -0.12900
C119        C  0.21937997  0.06778618  0.21537029     0.00800
C120        C  0.19365567  0.04706551  0.22455301    -0.11400
C121        C  0.17378721  0.02255848  0.21390368     0.03300
C122        C  0.17989315  0.01878188  0.19378959    -0.10800
H123        H  0.24390999  0.08115308  0.18802735     0.08900
H124        H  0.18914280  0.04978759  0.24008099     0.06400
H125        H  0.16456694  0.99998817  0.18540459     0.06200
C126        C  0.23823782  0.25574209  0.31083589     0.42600
N127        N  0.25309278  0.21412326  0.29113240     0.01500
C128        C  0.40324799  0.11272110  0.29000385    -0.06400
H129        H  0.42307049  0.24980973  0.28009382     0.07000
C130        C  0.35494251  0.24321983  0.21857488    -0.06700
Co131      Co  0.31811580  0.17673342  0.30352324     0.74200
N132        N  0.37881099  0.21671170  0.28711660    -0.25900
Co133      Co  0.37860894  0.17768053  0.26569720     0.74100
C134        C  0.38645447  0.26115221  0.22545611     0.42700
N135        N  0.27308152  0.21497161  0.23344103     0.01100
N136        N  0.37548386  0.21666233  0.24414535     0.01200
N137        N  0.36426457  0.11323997  0.31491016    -0.46800
H138        H  0.28643249  0.24562642  0.33029310     0.07000
N139        N  0.35619597  0.21663284  0.30166294     0.01500
N140        N  0.37703385  0.13854279  0.24415485     0.01200
C141        C  0.39141641  0.09660535  0.22449354     0.42800
N142        N  0.25053894  0.21466718  0.24801667    -0.25400
C143        C  0.27388239  0.11095746  0.31728403    -0.06300
N144        N  0.22860051  0.23829857  0.29452647    -0.46500
N145        N  0.40124155  0.11403278  0.24079255    -0.46700
C146        C  0.24225407  0.09323482  0.31032588     0.42600
N147        N  0.35756579  0.13863492  0.30194919     0.01500
N148        N  0.25144739  0.13696810  0.24778467    -0.25400
N149        N  0.27819468  0.21445854  0.30428258    -0.25900
N150        N  0.27410918  0.13718313  0.23327376     0.01100
H151        H  0.20601855  0.10516146  0.25408733     0.07000
H152        H  0.34370587  0.10743561  0.20485884     0.07000
N153        N  0.38016075  0.13903194  0.28739571    -0.25900
N154        N  0.35024742  0.21611300  0.23109699    -0.25500
N155        N  0.25508120  0.13617792  0.29089793     0.01500
C156        C  0.38987621  0.26118414  0.30741423     0.42900
C157        C  0.22818176  0.24179686  0.24572895    -0.06800
N158        N  0.35200533  0.13851555  0.23094085    -0.25500
H159        H  0.33855521  0.24918079  0.20615138     0.07000
N160        N  0.36224220  0.24252506  0.31437351    -0.46800
H161        H  0.20619546  0.24762316  0.25511888     0.07000
C162        C  0.23908389  0.09441269  0.22661302     0.42700
C163        C  0.27108398  0.23986920  0.31744762    -0.06300
Co164      Co  0.25187571  0.17544569  0.26945672     0.73800
N165        N  0.26695612  0.24095154  0.22075360    -0.46500
C166        C  0.39259017  0.09563467  0.30820461     0.43000
N167        N  0.23195670  0.11056512  0.29405603    -0.46500
Co168      Co  0.31226750  0.17660599  0.23171086     0.73900
C169        C  0.35891627  0.11300032  0.21778397    -0.06800
C170        C  0.40099735  0.24394506  0.28942494    -0.06400
N171        N  0.27990110  0.13702120  0.30422616    -0.25900
N172        N  0.39781879  0.24311387  0.24127938    -0.46700
H173        H  0.42546170  0.10738862  0.28069498     0.07000
C174        C  0.22844289  0.11067498  0.24495769    -0.06800
Cl175      Cl  0.31522572  0.17652345  0.26761336    -0.49800
C176        C  0.23927514  0.25926854  0.22772888     0.42700
H177        H  0.28910390  0.10580596  0.33027120     0.07000
N178        N  0.26740356  0.11235975  0.22006974    -0.46500
N179        N  0.29153376  0.43779377  0.54893734    -0.36500
N180        N  0.33365322  0.47003819  0.51821515    -0.57000
N181        N  0.29474332  0.42758821  0.48936538    -0.36500
N182        N  0.24973225  0.39882626  0.51985319    -0.57000
C183        C  0.31024740  0.46121445  0.55971832     0.27100
C184        C  0.26663729  0.42348559  0.56055218     0.27100
C185        C  0.31383774  0.44857240  0.47735210     0.27100
C186        C  0.27054989  0.41071367  0.47837645     0.27100
C187        C  0.35137471  0.48292608  0.53373252     0.35700
C188        C  0.35258613  0.47805814  0.50214266     0.35700
C189        C  0.23542018  0.38489353  0.53615079     0.35700
C190        C  0.23681244  0.37990983  0.50476350     0.35700
C191        C  0.29708076  0.46151546  0.57860874    -0.21800
C192        C  0.26968444  0.43780651  0.57912656    -0.21800
C193        C  0.30201343  0.44432184  0.45833422    -0.21700
C194        C  0.27487980  0.42049370  0.45898388    -0.21700
C195        C  0.38572214  0.01299519  0.52963841    -0.22800
C196        C  0.38838977  0.00908692  0.50974008    -0.22800
C197        C  0.21257429  0.35751698  0.53134430    -0.22800
C198        C  0.21342631  0.35441296  0.51141400    -0.22800
C199        C  0.33995006  0.48098623  0.55340987    -0.18200
C200        C  0.24236437  0.39648284  0.55533774    -0.18200
C201        C  0.24540473  0.38567774  0.48502594    -0.18200
C202        C  0.34252823  0.47046672  0.48271544    -0.18200
H203        H  0.30647656  0.47676319  0.59091611     0.14800
H204        H  0.25402914  0.43155480  0.59184875     0.14800
H205        H  0.31201459  0.45676394  0.44520033     0.14800
H206        H  0.26013421  0.41137820  0.44649343     0.14800
H207        H  0.40295354  0.02876416  0.53867907     0.13000
H208        H  0.40800720  0.02120114  0.50046121     0.13000
H209        H  0.19694251  0.34141165  0.54116590     0.13000
H210        H  0.19863630  0.33550878  0.50282040     0.13000
H211        H  0.29654797  0.43038505  0.53475147     0.26300
H212        H  0.29912663  0.42373559  0.50405748     0.26300
N213        N  0.06627225  0.19202378  0.05004823    -0.36500
N214        N  0.11231500  0.22369979  0.02072209    -0.57000
N215        N  0.07098818  0.18737769  0.99198932    -0.36500
N216        N  0.02758151  0.15218743  0.02051426    -0.57000
C217        C  0.09303767  0.20439274  0.06099736     0.27100
C218        C  0.04895698  0.16741657  0.06087462     0.27100
C219        C  0.09927474  0.19804602  0.98180789     0.27100
C220        C  0.05578056  0.16101642  0.98168790     0.27100
C221        C  0.12125152  0.24351405  0.03628434     0.35700
C222        C  0.12244822  0.24220397  0.00477222     0.35700
C223        C  0.00600878  0.14865268  0.03595158     0.35700
C224        C  0.00788006  0.14765545  0.00437830     0.35700
C225        C  0.09280795  0.18738173  0.07900504    -0.21800
C226        C  0.06511370  0.16389902  0.07888782    -0.21800
C227        C  0.10268654  0.17774066  0.96502645    -0.21700
C228        C  0.07518743  0.15412058  0.96499030    -0.21700
C229        C  0.13810247  0.27445264  0.03028315    -0.22800
C230        C  0.13852764  0.27379340  0.01016365    -0.22800
C231        C  0.47588439  0.13885319  0.03027021    -0.22800
C232        C  0.47741341  0.13781017  0.01015830    -0.22800
C233        C  0.11568736  0.23275379  0.05572983    -0.18200
C234        C  0.01708937  0.15078509  0.05552187    -0.18200
C235        C  0.02174470  0.14821650  0.98530260    -0.18200
C236        C  0.11775676  0.22972089  0.98561650    -0.18200
H237        H  0.11039817  0.19186811  0.09110292     0.14800
H238        H  0.05725056  0.14683752  0.09088935     0.14800
H239        H  0.12180322  0.18111032  0.95351083     0.14800
H240        H  0.06885911  0.13560738  0.95341269     0.14800
H241        H  0.14870152  0.29532527  0.03942866     0.13000
H242        H  0.14957226  0.29398986  0.00066658     0.13000
H243        H  0.45324423  0.13303469  0.03920258     0.13000
H244        H  0.45621473  0.13084449  0.00046286     0.13000
H245        H  0.05856625  0.20191748  0.03654775     0.26300
H246        H  0.06007360  0.20060527  0.00385573     0.26300
N247        N  0.06979842  0.19605590  0.48406917    -0.36500
N248        N  0.11054142  0.15826929  0.51349645    -0.57000
N249        N  0.07073487  0.19526902  0.54353763    -0.36500
N250        N  0.02684992  0.22913190  0.51424455    -0.57000
C251        C  0.08645790  0.17151402  0.47298024     0.27100
C252        C  0.04289837  0.20898810  0.47339232     0.27100
C253        C  0.08849985  0.17132273  0.55449292     0.27100
C254        C  0.04508592  0.20891639  0.55488763     0.27100
C255        C  0.12878380  0.14826433  0.49757370     0.35700
C256        C  0.12946333  0.14805795  0.52913911     0.35700
C257        C  0.01409238  0.24669117  0.49861051     0.35700
C258        C  0.01467799  0.24643469  0.53009374     0.35700
C259        C  0.07003092  0.16904436  0.45498768    -0.21800
C260        C  0.04267369  0.19277697  0.45522473    -0.21800
C261        C  0.07409925  0.17004274  0.57309520    -0.21700
C262        C  0.04687079  0.19379749  0.57335733    -0.21700
C263        C  0.15933690  0.13113494  0.50310784    -0.22800
C264        C  0.15972218  0.13094307  0.52317665    -0.22800
C265        C  0.48994993  0.27563134  0.50375960    -0.22800
C266        C  0.49027555  0.27552570  0.52379512    -0.22800
C267        C  0.11705664  0.15244777  0.47819301    -0.18200
C268        C  0.01975132  0.23650790  0.47911356    -0.18200
C269        C  0.02133234  0.23613892  0.54949051    -0.18200
C270        C  0.11856482  0.15199645  0.54867379    -0.18200
H271        H  0.07713138  0.15205038  0.44285546     0.14800
H272        H  0.02473035  0.19762306  0.44332066     0.14800
H273        H  0.08252530  0.15399162  0.58536966     0.14800
H274        H  0.03047917  0.19944741  0.58585030     0.14800
H275        H  0.17902463  0.11958849  0.49368949     0.13000
H276        H  0.17969388  0.11917573  0.53232185     0.13000
H277        H  0.47630536  0.29463462  0.49459963     0.13000
H278        H  0.47707213  0.29447799  0.53315409     0.13000
H279        H  0.07763916  0.20512769  0.49764039     0.26300
H280        H  0.07708104  0.20345203  0.52954887     0.26300
N281        N  0.32082632  0.44618594  0.98551669    -0.36500
N282        N  0.35792328  0.40632299  0.01611537    -0.57000
N283        N  0.31860179  0.44630027  0.04483457    -0.36500
N284        N  0.28501688  0.48932871  0.01438691    -0.57000
C285        C  0.34597567  0.42953141  0.97507254     0.27100
C286        C  0.30766881  0.47265644  0.97418732     0.27100
C287        C  0.34177304  0.42919900  0.05646684     0.27100
C288        C  0.30358672  0.47234018  0.05558009     0.27100
C289        C  0.36741239  0.38681789  0.00044097     0.35700
C290        C  0.36614506  0.38678822  0.03207687     0.35700
C291        C  0.26761986  0.50042615  0.99835762     0.35700
C292        C  0.26621259  0.50035202  0.02990560     0.35700
C293        C  0.34878876  0.44560790  0.95685866    -0.21800
C294        C  0.32455747  0.47270453  0.95628486    -0.21800
C295        C  0.34139041  0.44456749  0.07486778    -0.21700
C296        C  0.31731525  0.47167494  0.07432425    -0.21700
C297        C  0.38234806  0.35489566  0.00645441    -0.22800
C298        C  0.38156454  0.35489771  0.02655866    -0.22800
C299        C  0.23437554  0.01035104  0.00353819    -0.22800
C300        C  0.23275665  0.00913512  0.02356488    -0.22800
C301        C  0.36453797  0.39850557  0.98087195    -0.18200
C302        C  0.27911654  0.49498807  0.97903234    -0.18200
C303        C  0.27567756  0.49456916  0.04953315    -0.18200
C304        C  0.36105447  0.39824022  0.05149562    -0.18200
H305        H  0.36610472  0.43818823  0.94504373     0.14800
H306        H  0.31966208  0.49014561  0.94397325     0.14800
H307        H  0.35625091  0.43659316  0.08757265     0.14800
H308        H  0.31024962  0.48839181  0.08656245     0.14800
H309        H  0.39288929  0.33395165  0.99731658     0.13000
H310        H  0.39126576  0.33394105  0.03601627     0.13000
H311        H  0.21637857  0.02436987  0.99406276     0.13000
H312        H  0.21334065  0.02208192  0.03260454     0.13000
H313        H  0.31140698  0.43813105  0.99900708     0.26300
H314        H  0.31135690  0.43890575  0.03087833     0.26300
C315        C  0.44305244  0.31380922  0.85043572     0.03300
C316        C  0.46623407  0.33493812  0.83944236    -0.12900
C317        C  0.46555552  0.33415524  0.81898436     0.00800
C318        C  0.44225271  0.31113979  0.80950467    -0.11400
C319        C  0.41980072  0.28898619  0.82024975     0.03300
C320        C  0.42061808  0.29002725  0.84073810    -0.10800
H321        H  0.48296415  0.35390644  0.84684373     0.08900
H322        H  0.44101061  0.31097964  0.79370683     0.06400
H323        H  0.40172143  0.27474167  0.84906729     0.06200
C324        C  0.45176275  0.08868384  0.84869771     0.03300
C325        C  0.47469166  0.06667588  0.83781136    -0.12900
C326        C  0.46739254  0.05819842  0.81828125     0.00800
C327        C  0.43922486  0.07476092  0.80898594    -0.11400
C328        C  0.41647362  0.09671497  0.81934862     0.03300
C329        C  0.42160054  0.10181205  0.83932268    -0.10800
H330        H  0.49796724  0.05565778  0.84439961     0.08900
H331        H  0.43477625  0.07044808  0.79360295     0.06400
H332        H  0.40160396  0.11575748  0.84742233     0.06200
C333        C  0.18474481  0.07163215  0.85023598     0.03300
C334        C  0.20582744  0.09555034  0.83966230    -0.12900
C335        C  0.20363702  0.09702989  0.81919625     0.00800
C336        C  0.17966299  0.07504911  0.80947720    -0.11400
C337        C  0.15741398  0.05236388  0.81998697     0.03300
C338        C  0.15938795  0.05150297  0.84038595    -0.10800
H339        H  0.22601373  0.11043077  0.84716135     0.08900
H340        H  0.17875429  0.07504331  0.79366887     0.06400
H341        H  0.14360898  0.03256970  0.84851630     0.06200
C342        C  0.17117932  0.30533869  0.84969018     0.03300
C343        C  0.15059584  0.32998639  0.83942960    -0.12900
C344        C  0.15732535  0.33757188  0.81971019     0.00800
C345        C  0.18462094  0.31945474  0.81008971    -0.11400
C346        C  0.20435681  0.29336545  0.81997085     0.03300
C347        C  0.19753049  0.28671265  0.83978422    -0.10800
H348        H  0.12970091  0.34367188  0.84699767     0.08900
H349        H  0.18995854  0.32504715  0.79485266     0.06400
H350        H  0.21332339  0.26764275  0.84775521     0.06200
C351        C  0.17431474  0.08311896  0.68406685     0.03300
C352        C  0.19902728  0.10393951  0.69385053    -0.12900
C353        C  0.20492310  0.09912511  0.71380429     0.00800
C354        C  0.18580659  0.07319447  0.72405437    -0.11400
C355        C  0.16032267  0.05257514  0.71458671     0.03300
C356        C  0.15436825  0.05798731  0.69452871    -0.10800
H357        H  0.21407380  0.12347169  0.68572405     0.08900
H358        H  0.19057118  0.06943231  0.73949403     0.06400
H359        H  0.13516412  0.04198716  0.68692426     0.06200
C360        C  0.43863310  0.07241064  0.68331856     0.03300
C361        C  0.46426596  0.05313708  0.69359484    -0.12900
C362        C  0.46561684  0.05435841  0.71405954     0.00800
C363        C  0.44209091  0.07633587  0.72422269    -0.11400
C364        C  0.41804351  0.09765602  0.71406271     0.03300
C365        C  0.41667915  0.09581652  0.69360655    -0.10800
H366        H  0.48129479  0.03506111  0.68573339     0.08900
H367        H  0.44238533  0.07672615  0.74004016     0.06400
H368        H  0.39661351  0.11042264  0.68581045     0.06200
C369        C  0.39281446  0.26819710  0.80998895     0.42600
N370        N  0.35048575  0.25674051  0.79051988     0.01500
C371        C  0.24549362  0.10676346  0.78947279    -0.06400
H372        H  0.37712305  0.08084596  0.78156579     0.07000
C373        C  0.37559617  0.15226303  0.71796463    -0.06700
Co374      Co  0.31029859  0.19216780  0.80291806     0.74200
N375        N  0.34724421  0.12834453  0.78740322    -0.25900
Co376      Co  0.31053202  0.13033849  0.76532701     0.74100
C377        C  0.39227878  0.11949462  0.72475220     0.42700
N378        N  0.35049568  0.23752900  0.73262080     0.01100
N379        N  0.34982250  0.13248774  0.74397670     0.01200
N380        N  0.24702437  0.14646638  0.81433157    -0.46800
H381        H  0.37971162  0.21979372  0.82949984     0.07000
N382        N  0.34719510  0.15149200  0.80188211     0.01500
N383        N  0.27332671  0.13319769  0.74343140     0.01200
C384        C  0.23194774  0.12013992  0.72379884     0.42800
N385        N  0.35071815  0.26086788  0.74701240    -0.25400
C386        C  0.24796265  0.23935901  0.81629895    -0.06300
N387        N  0.37617650  0.27963527  0.79376207    -0.46500
N388        N  0.24856740  0.10936671  0.74009934    -0.46700
C389        C  0.23211860  0.27289348  0.80988988     0.42600
N390        N  0.27153298  0.15325265  0.80115490     0.01500
N391        N  0.27450239  0.26161728  0.74695149    -0.25400
N392        N  0.34918547  0.23101454  0.80372182    -0.25900
N393        N  0.27444850  0.23837093  0.73248418     0.01100
H394        H  0.24169452  0.30662857  0.75385192     0.07000
H395        H  0.24382163  0.16908681  0.70433130     0.07000
N396        N  0.27158484  0.13002969  0.78667588    -0.25900
N397        N  0.34983351  0.15827135  0.73079520    -0.25500
N398        N  0.27387836  0.25906231  0.79036799     0.01500
C399        C  0.38737052  0.11421079  0.80918371     0.42900
C400        C  0.37690412  0.28396900  0.74402987    -0.06800
N401        N  0.27409754  0.15891647  0.73026146    -0.25500
H402        H  0.38133195  0.16835695  0.70522829     0.07000
N403        N  0.37080057  0.14393044  0.81536762    -0.46800
H404        H  0.38271362  0.30681062  0.75308696     0.07000
C405        C  0.23099089  0.27260966  0.72652576     0.42700
C406        C  0.37479122  0.23612525  0.81675405    -0.06300
Co407      Co  0.31245535  0.26040713  0.76871860     0.73800
N408        N  0.37520793  0.24363996  0.71948853    -0.46500
C409        C  0.22922611  0.11778628  0.80776410     0.43000
N410        N  0.24959782  0.28361915  0.79374807    -0.46500
Co411      Co  0.31219847  0.19837995  0.73112344     0.73900
C412        C  0.24891267  0.15294327  0.71712277    -0.06800
C413        C  0.37192826  0.10383725  0.79064232    -0.06400
N414        N  0.27341081  0.23299152  0.80335519    -0.25900
N415        N  0.37475098  0.10854691  0.74083919    -0.46700
H416        H  0.24008583  0.08371971  0.78048231     0.07000
C417        C  0.24784417  0.28427543  0.74449098    -0.06800
Cl418      Cl  0.31138394  0.19533649  0.76703241    -0.49800
C419        C  0.39309165  0.27243951  0.72576579     0.42700
H420        H  0.24199329  0.22291483  0.82886216     0.07000
N421        N  0.24904963  0.24424898  0.71975148    -0.46500
C422        C  0.45329681  0.30058149  0.68450697     0.03300
C423        C  0.42714995  0.28255786  0.69499932    -0.12900
C424        C  0.42118773  0.29049963  0.71475739     0.00800
C425        C  0.44158953  0.31665340  0.72388244    -0.11400
C426        C  0.46798652  0.33460255  0.71362310     0.03300
C427        C  0.47400598  0.32616694  0.69394725    -0.10800
H428        H  0.41122921  0.26279490  0.68766622     0.08900
H429        H  0.43712570  0.32299132  0.73908753     0.06400
H430        H  0.49391308  0.34023461  0.68572656     0.06200
C431        C  0.17441709  0.31066703  0.68628348     0.03300
C432        C  0.19947011  0.28962224  0.69592329    -0.12900
C433        C  0.20195221  0.29051902  0.71637103     0.00800
C434        C  0.17898856  0.31220962  0.72702863    -0.11400
C435        C  0.15380270  0.33294799  0.71747058     0.03300
C436        C  0.15065774  0.33081220  0.69723596    -0.10800
H437        H  0.21880904  0.27515014  0.68751227     0.08900
H438        H  0.18150633  0.31389883  0.74273366     0.06400
H439        H  0.13198000  0.34772757  0.68973672     0.06200
C440        C  0.13640175  0.36504043  0.80945265     0.42600
N441        N  0.12323836  0.40791824  0.78996604     0.01500
C442        C  0.47619254  0.01300314  0.78972814    -0.06400
H443        H  0.45299755  0.37146735  0.78011593     0.07000
C444        C  0.02026270  0.38272829  0.71595483    -0.06700
Co445      Co  0.05859936  0.44628187  0.80196764     0.74200
N446        N  0.99760668  0.40741094  0.78527910    -0.25900
Co447      Co  0.49842376  0.44362830  0.76525254     0.74100
C448        C  0.48805957  0.36295233  0.72346440     0.42700
N449        N  0.10330243  0.40758078  0.73245253     0.01100
N450        N  0.00072951  0.40813924  0.74211138     0.01200
N451        N  0.01440093  0.00909419  0.81457597    -0.46800
H452        H  0.08757930  0.37564392  0.82843258     0.07000
N453        N  0.01997875  0.40717500  0.79990800     0.01500
N454        N  0.50024703  0.48327623  0.74371755     0.01200
C455        C  0.48839745  0.02947597  0.72489830     0.42800
N456        N  0.12577709  0.40770043  0.74702751    -0.25400
C457        C  0.10400210  0.00863521  0.81659075    -0.06300
N458        N  0.14703262  0.38296898  0.79339752    -0.46500
N459        N  0.47805122  0.01190454  0.74111843    -0.46700
C460        C  0.13570281  0.02616374  0.80959497     0.42600
N461        N  0.02010030  0.48520308  0.80025426     0.01500
N462        N  0.12645081  0.48564964  0.74637981    -0.25400
N463        N  0.09769497  0.40769074  0.80287686    -0.25900
N464        N  0.10387311  0.48577557  0.73185151     0.01100
H465        H  0.17385442  0.01305605  0.75309145     0.07000
H466        H  0.03532235  0.01491612  0.70423135     0.07000
N467        N  0.49751550  0.48198877  0.78714275    -0.25900
N468        N  0.02609045  0.40851153  0.72909262    -0.25500
N469        N  0.12234628  0.48604493  0.78963814     0.01500
C470        C  0.98599825  0.36284968  0.80554565     0.42900
C471        C  0.14674313  0.37930144  0.74546652    -0.06800
N472        N  0.02576851  0.48597319  0.72914808    -0.25500
H473        H  0.03627862  0.37724976  0.70330156     0.07000
N474        N  0.01359760  0.38123003  0.81259076    -0.46800
H475        H  0.16806023  0.37279180  0.75517265     0.07000
C476        C  0.14104994  0.02477740  0.72560478     0.42700
C477        C  0.10366496  0.38153854  0.81584903    -0.06300
Co478      Co  0.12524479  0.44693592  0.76821545     0.73800
N479        N  0.10809850  0.38025242  0.72053092    -0.46500
C480        C  0.48725265  0.03055521  0.80766160     0.43000
N481        N  0.14635624  0.00844606  0.79351881    -0.46500
Co482      Co  0.06501011  0.44703943  0.73014989     0.73900
C483        C  0.02023034  0.00990749  0.71730781    -0.06800
C484        C  0.47521478  0.37720850  0.78931326    -0.06400
N485        N  0.09734756  0.48529768  0.80289887    -0.25900
N486        N  0.47751506  0.37985089  0.73984530    -0.46700
H487        H  0.45437565  0.01870539  0.78022805     0.07000
C488        C  0.15130826  0.00804962  0.74401933    -0.06800
Cl489      Cl  0.06183493  0.44685560  0.76605417    -0.49800
C490        C  0.13476755  0.36097293  0.72802045     0.42700
H491        H  0.08828025  0.01438757  0.82932502     0.07000
N492        N  0.11217639  0.00758845  0.71930320    -0.46500
C493        C  0.19402093  0.06193868  0.87055797    -0.19700
C494        C  0.20510836  0.02682566  0.87487280     0.36500
C495        C  0.21465996  0.01796279  0.89397794    -0.25700
C496        C  0.21327576  0.04322745  0.90902261     0.02900
C497        C  0.20238160  0.07848023  0.90476855     0.27700
C498        C  0.19314555  0.08760538  0.88546016    -0.24800
N499        N  0.20728971  0.00042122  0.85969692    -0.82200
H500        H  0.22393069  0.99120104  0.89710973     0.13500
C501        C  0.22490769  0.03197712  0.92880642     0.02900
N502        N  0.20055418  0.10466794  0.92003632    -0.80800
H503        H  0.18490156  0.11459690  0.88204307     0.18400
C504        C  0.25253327  0.05013508  0.93788941    -0.25600
C505        C  0.26809214  0.03672643  0.95491940     0.36400
C506        C  0.25948887  0.51204311  0.96276201    -0.19700
C507        C  0.23159063  0.49294826  0.95465966    -0.24900
C508        C  0.21458323  0.50513748  0.93777100     0.27800
H509        H  0.26318999  0.07404714  0.93121958     0.13500
N510        N  0.29683757  0.05615669  0.96321987    -0.82200
H511        H  0.22380943  0.46781361  0.96123924     0.18400
N512        N  0.18654883  0.48477500  0.92939784    -0.80800
H513        H  0.28732156  0.08104830  0.96762769     0.34000
H514        H  0.30638196  0.04371587  0.97576788     0.38500
H515        H  0.18164482  0.46182846  0.93769125     0.34000
H516        H  0.16397858  0.50044502  0.93009738     0.30700
H517        H  0.19209178  0.12923091  0.91448609     0.34000
H518        H  0.17425628  0.59470140  0.92956051     0.30700
H519        H  0.21553642  0.97584487  0.86532502     0.38500
H520        H  0.22649298  0.00874337  0.84982243     0.34000
C521        C  0.43745210  0.32183310  0.87142090    -0.19700
C522        C  0.43695038  0.29496049  0.88587476     0.36500
C523        C  0.42808442  0.30375847  0.90520885    -0.25700
C524        C  0.41928707  0.33896820  0.91021282     0.02900
C525        C  0.42046131  0.36600241  0.89589393     0.27700
C526        C  0.42981093  0.35722020  0.87670362    -0.24800
N527        N  0.44531442  0.25880827  0.88096125    -0.82200
H528        H  0.42721024  0.28296739  0.91623089     0.13500
C529        C  0.40679951  0.34750215  0.93011865     0.02900
N530        N  0.41141514  0.40215770  0.90086106    -0.80800
H531        H  0.42972971  0.37789801  0.86560707     0.18400
C532        C  0.42917753  0.36628089  0.94263668    -0.25600
C533        C  0.41685291  0.38145336  0.96002789     0.36400
C534        C  0.38124228  0.37726735  0.96511935    -0.19700
C535        C  0.35939858  0.35676577  0.95315648    -0.24900
C536        C  0.37150578  0.34220252  0.93561109     0.27800
H537        H  0.45604917  0.37087253  0.93830694     0.13500
N538        N  0.44061955  0.40264391  0.97138166    -0.82200
H539        H  0.33203470  0.35387692  0.95693686     0.18400
N540        N  0.34679921  0.32384032  0.92342388    -0.80800
H541        H  0.46029495  0.38564226  0.97645217     0.34000
H542        H  0.42859426  0.41338600  0.98370779     0.38500
H543        H  0.32802282  0.34244784  0.91899423     0.34000
H544        H  0.35829485  0.31391933  0.91074744     0.30700
H545        H  0.41387569  0.41889730  0.88869966     0.34000
H546        H  0.38502248  0.40247070  0.90480039     0.30700
H547        H  0.46644285  0.25076829  0.88956700     0.38500
H548        H  0.42388038  0.24289040  0.88468290     0.34000
C549        C  0.16988655  0.08804072  0.66282173    -0.19700
C550        C  0.19824504  0.08308909  0.64987800     0.36500
C551        C  0.19413396  0.09140079  0.63001891    -0.25700
C552        C  0.16228824  0.10441787  0.62300601     0.02900
C553        C  0.13391711  0.10926358  0.63587340     0.27700
C554        C  0.13788692  0.10060861  0.65568846    -0.24800
N555        N  0.23106646  0.06979588  0.65701997    -0.82200
H556        H  0.21573918  0.08782409  0.61997736     0.13500
C557        C  0.15860801  0.11329386  0.60214953     0.02900
N558        N  0.10141713  0.12342813  0.62874881    -0.80800
H559        H  0.11639551  0.10481159  0.66573256     0.18400
C560        C  0.14005803  0.08986394  0.59011122    -0.25600
C561        C  0.12987634  0.10016305  0.57132819     0.36400
C562        C  0.13882747  0.13467520  0.56448320    -0.19700
C563        C  0.16024833  0.15672414  0.57587850    -0.24900
C564        C  0.16990455  0.14652851  0.59483551     0.27800
H565        H  0.13167362  0.06420061  0.59578795     0.13500
N566        N  0.10870103  0.07594863  0.56019385    -0.82200
H567        H  0.16666490  0.18327210  0.57063656     0.18400
N568        N  0.18930745  0.17052872  0.60706761    -0.80800
H569        H  0.08476968  0.07325684  0.56741676     0.34000
H570        H  0.10336511  0.08594853  0.54629155     0.38500
H571        H  0.19561669  0.19388246  0.59943431     0.34000
H572        H  0.17301541  0.17820482  0.61857608     0.30700
H573        H  0.08315192  0.12523489  0.64006047     0.34000
H574        H  0.10605953  0.14954313  0.62394946     0.30700
H575        H  0.24167235  0.56191798  0.64478834     0.38500
H576        H  0.21895544  0.54222087  0.66277723     0.34000
C577        C  0.00304596  0.25499511  0.56547765    -0.19700
C578        C  0.01913312  0.28375722  0.57532940     0.36500
C579        C  0.50463197  0.29395688  0.59332601    -0.25700
C580        C  0.47700792  0.27576273  0.60241662     0.02900
C581        C  0.45826251  0.24965614  0.59199215     0.27700
C582        C  0.46932714  0.24031779  0.57313356    -0.24800
N583        N  0.05004064  0.30119961  0.56808527    -0.82200
H584        H  0.51866446  0.31443349  0.60125956     0.13500
C585        C  0.47060659  0.28161337  0.62346816     0.02900
N586        N  0.42955834  0.23120543  0.60105361    -0.80800
H587        H  0.45668497  0.21844876  0.56559176     0.18400
C588        C  0.43933967  0.29741582  0.62967632    -0.25600
C589        C  0.43301417  0.30356641  0.64961356     0.36400
C590        C  0.45846094  0.29356322  0.66347256    -0.19700
C591        C  0.48956453  0.27745146  0.65724677    -0.24900
C592        C  0.49572621  0.27096096  0.63736171     0.27800
H593        H  0.42009648  0.30530535  0.61891759     0.13500
N594        N  0.40113632  0.32033002  0.65585358    -0.82200
H595        H  0.50889917  0.26965597  0.66797739     0.18400
N596        N  0.02536668  0.25229843  0.63081848    -0.80800
H597        H  0.38514295  0.32588823  0.64387048     0.34000
H598        H  0.40766888  0.34493549  0.66204269     0.38500
H599        H  0.04075050  0.24580508  0.64290923     0.34000
H600        H  0.01735364  0.22811908  0.62466524     0.30700
H601        H  0.41862496  0.21275853  0.59139696     0.34000
H602        H  0.43953262  0.21644798  0.61276195     0.30700
H603        H  0.05766778  0.29117305  0.55454384     0.38500
H604        H  0.04380135  0.32807515  0.56578543     0.34000
C605        C  0.12775512  0.25166956  0.96842212    -0.19700
C606        C  0.10162554  0.26252176  0.95516427     0.36500
C607        C  0.11103192  0.27560245  0.93680046    -0.25700
C608        C  0.14616171  0.27836160  0.93148190     0.02900
C609        C  0.17250926  0.27054039  0.94521226     0.27700
C610        C  0.16301368  0.25708415  0.96369329    -0.24800
N611        N  0.06540970  0.25846995  0.96001667    -0.82200
H612        H  0.09081078  0.28194706  0.92629002     0.13500
C613        C  0.15445287  0.28522507  0.91080887     0.02900
N614        N  0.20862541  0.27542263  0.94012771    -0.80800
H615        H  0.18302000  0.24893650  0.97394171     0.18400
C616        C  0.15806102  0.32036835  0.90412091    -0.25600
C617        C  0.16366957  0.32745828  0.88424973     0.36400
C618        C  0.16533693  0.29894386  0.87082445    -0.19700
C619        C  0.16185531  0.26372035  0.87765621    -0.24900
C620        C  0.15633237  0.25657841  0.89754144     0.27800
H621        H  0.15636864  0.34234031  0.91434708     0.13500
N622        N  0.16835432  0.36357695  0.87781545    -0.82200
H623        H  0.16293910  0.24177582  0.86739072     0.18400
N624        N  0.15167638  0.22046893  0.90429891    -0.80800
H625        H  0.14605712  0.37808397  0.88166553     0.34000
H626        H  0.18959112  0.37438561  0.88533549     0.38500
H627        H  0.15317524  0.20255187  0.89264802     0.34000
H628        H  0.17247737  0.21433776  0.91357994     0.30700
H629        H  0.22465587  0.26881537  0.95193448     0.34000
H630        H  0.21468140  0.25748715  0.92896176     0.30700
H631        H  0.05347725  0.28351322  0.95893228     0.38500
H632        H  0.05398929  0.24167395  0.94966065     0.34000
C633        C  0.00000266  0.14029978  0.96780407    -0.19700
C634        C  0.49512933  0.10242364  0.96372177     0.36500
C635        C  0.48226301  0.09513064  0.94502856    -0.25700
C636        C  0.48171513  0.12162443  0.93036263     0.02900
C637        C  0.49094775  0.15710230  0.93542642     0.27700
C638        C  0.99767822  0.16716467  0.95351692    -0.24800
N639        N  0.50123931  0.07313277  0.97676596    -0.82200
H640        H  0.47441187  0.06804620  0.94169896     0.13500
C641        C  0.47300269  0.11180226  0.90974923     0.02900
N642        N  0.99296228  0.18584700  0.91929150    -0.80800
H643        H  0.00699435  0.19375960  0.95694744     0.18400
C644        C  0.45221239  0.13490689  0.89854930    -0.25600
C645        C  0.44738619  0.12960368  0.87848549     0.36400
C646        C  0.45875541  0.09723022  0.86976231    -0.19700
C647        C  0.47752273  0.07281972  0.88140503    -0.24900
C648        C  0.48652450  0.08067735  0.90080433     0.27800
H649        H  0.44082663  0.15831162  0.90527719     0.13500
N650        N  0.43236916  0.15784749  0.86696713    -0.82200
H651        H  0.48602300  0.04761734  0.87537415     0.18400
N652        N  0.51009227  0.05754187  0.91118380    -0.80800
H653        H  0.42542142  0.17960100  0.87567206     0.34000
H654        H  0.45162875  0.16691560  0.85732532     0.38500
H655        H  0.51756775  0.03587814  0.90252802     0.34000
H656        H  0.02606590  0.07157573  0.91542433     0.30700
H657        H  0.00176305  0.20992942  0.92521734     0.34000
H658        H  0.51355172  0.17761251  0.91124305     0.30700
H659        H  0.52768941  0.07295047  0.98053530     0.38500
H660        H  0.48650146  0.07690013  0.98940786     0.34000
C661        C  0.36053322  0.49996639  0.56871650    -0.19700
C662        C  0.34966132  0.04164410  0.57986065     0.36500
C663        C  0.36636029  0.05514016  0.59655452    -0.25700
C664        C  0.39699708  0.03932848  0.60386674     0.02900
C665        C  0.41245588  0.01096503  0.59337771     0.27700
C666        C  0.38967158  0.48254663  0.57665534    -0.24800
N667        N  0.31854169  0.05923778  0.57310525    -0.82200
H668        H  0.35437022  0.07709832  0.60435937     0.13500
C669        C  0.41004210  0.04903037  0.62369999     0.02900
N670        N  0.44517375  0.99610240  0.59970776    -0.80800
H671        H  0.39853761  0.45780099  0.57013386     0.18400
C672        C  0.41406982  0.02150678  0.63746091    -0.25600
C673        C  0.42429652  0.02849930  0.65670666     0.36400
C674        C  0.43092008  0.06404903  0.66252314    -0.19700
C675        C  0.42696956  0.09178470  0.64880649    -0.24900
C676        C  0.41671170  0.08464760  0.62941743     0.27800
H677        H  0.39531813  0.48473462  0.63427687     0.13500
N678        N  0.42659748  0.99965674  0.67056133    -0.82200
H679        H  0.43170886  0.11908918  0.65329780     0.18400
N680        N  0.41293596  0.11333995  0.61560543    -0.80800
H681        H  0.40327340  0.46874379  0.66608889     0.34000
H682        H  0.40713216  0.00357510  0.68105607     0.38500
H683        H  0.41860551  0.13786107  0.62215644     0.34000
H684        H  0.43157024  0.10956718  0.60463802     0.30700
H685        H  0.45289440  0.97525034  0.59054080     0.34000
H686        H  0.46408497  0.01610336  0.59835398     0.30700
H687        H  0.31046620  0.54105972  0.55661652     0.38500
H688        H  0.29935494  0.05617946  0.58384991     0.34000
C689        C  0.17769285  0.31846017  0.66521537    -0.19700
C690        C  0.17905803  0.29143331  0.65096464     0.36500
C691        C  0.18408353  0.30104277  0.63129925    -0.25700
C692        C  0.18825610  0.33702111  0.62585434     0.02900
C693        C  0.18654523  0.36397096  0.64014750     0.27700
C694        C  0.18096791  0.35439843  0.65959495    -0.24800
N695        N  0.17569946  0.25455695  0.65653112    -0.82200
H696        H  0.18560986  0.28047149  0.62023480     0.13500
C697        C  0.19832692  0.34644919  0.60567211     0.02900
N698        N  0.19184423  0.40086848  0.63496296    -0.80800
H699        H  0.18059206  0.37512767  0.67060851     0.18400
C700        C  0.17871908  0.37214382  0.59546299    -0.25600
C701        C  0.19194380  0.38807587  0.57844067     0.36400
C702        C  0.22484068  0.37732870  0.57145642    -0.19700
C703        C  0.24306181  0.34966504  0.58068454    -0.24900
C704        C  0.23032411  0.33429039  0.59791185     0.27800
H705        H  0.15408252  0.38124335  0.60146656     0.13500
N706        N  0.17321147  0.41636454  0.56884515    -0.82200
H707        H  0.26824288  0.34151540  0.57497922     0.18400
N708        N  0.25065426  0.30789778  0.60811150    -0.80800
H709        H  0.14981380  0.42169676  0.57616658     0.34000
H710        H  0.16639466  0.40733625  0.55494359     0.38500
H711        H  0.27333411  0.30173519  0.60029682     0.34000
H712        H  0.25877968  0.31915168  0.62129298     0.30700
H713        H  0.18943221  0.41731106  0.64720236     0.34000
H714        H  0.21756293  0.40356976  0.63002151     0.30700
H715        H  0.15060713  0.25101349  0.66224825     0.38500
H716        H  0.17756769  0.23804938  0.64428773     0.34000
C717        C  0.25440080  0.51082368  0.06520473    -0.19700
C718        C  0.22736172  0.49106410  0.07428181     0.36500
C719        C  0.21532127  0.50163106  0.09262958    -0.25700
C720        C  0.22480317  0.02084095  0.10161091     0.02900
C721        C  0.24172215  0.04466107  0.08878739     0.27700
C722        C  0.25307530  0.03227041  0.07052018    -0.24800
N723        N  0.21309441  0.45904485  0.06590758    -0.82200
H724        H  0.19612758  0.48523024  0.10008150     0.13500
C725        C  0.21950728  0.02980050  0.12232654     0.02900
N726        N  0.24878043  0.08066949  0.09481667    -0.80800
H727        H  0.26824143  0.04964405  0.06109360     0.18400
C728        C  0.24866092  0.02997956  0.13463547    -0.25600
C729        C  0.24476888  0.03306155  0.15491598     0.36400
C730        C  0.21091464  0.03676860  0.16295735    -0.19700
C731        C  0.18183046  0.03765791  0.15044970    -0.24900
C732        C  0.18583736  0.03407018  0.13016914     0.27800
H733        H  0.27444073  0.02614643  0.12841741     0.13500
N734        N  0.27491673  0.03121145  0.16737151    -0.82200
H735        H  0.15592044  0.04105542  0.15654572     0.18400
N736        N  0.15596349  0.03420286  0.11749974    -0.80800
H737        H  0.29776622  0.02860291  0.15911758     0.34000
H738        H  0.27272150  0.00801209  0.17581051     0.38500
H739        H  0.13299968  0.03749192  0.12557239     0.34000
H740        H  0.15809122  0.05651963  0.10836664     0.30700
H741        H  0.26175936  0.09465391  0.08374764     0.34000
H742        H  0.22473789  0.09339772  0.09682971     0.30700
H743        H  0.22313593  0.45410293  0.05201456     0.38500
H744        H  0.22051653  0.43759230  0.07478167     0.34000
C745        C  0.18330065  0.05839752  0.37171834    -0.19700
C746        C  0.20907571  0.05718503  0.38640801     0.36500
C747        C  0.20118773  0.07029915  0.40512409    -0.25700
C748        C  0.16814740  0.08452526  0.40922008     0.02900
C749        C  0.14218676  0.08509528  0.39469376     0.27700
C750        C  0.14998049  0.07183199  0.37608569    -0.24800
N751        N  0.24315246  0.04309166  0.38214485    -0.82200
H752        H  0.22091589  0.07001170  0.41644240     0.13500
C753        C  0.16095404  0.10028289  0.42848660     0.02900
N754        N  0.10847955  0.10039641  0.39874326    -0.80800
H755        H  0.13042912  0.07329624  0.36469175     0.18400
C756        C  0.16574683  0.13710204  0.43094837    -0.25600
C757        C  0.15355028  0.15421364  0.44777508     0.36400
C758        C  0.13633058  0.13420729  0.46229158    -0.19700
C759        C  0.13348819  0.09702818  0.46037796    -0.24900
C760        C  0.14563657  0.07978764  0.44349517     0.27800
H761        H  0.17758221  0.15280484  0.41938985     0.13500
N762        N  0.15737475  0.19209117  0.44981364    -0.82200
H763        H  0.12018951  0.08180388  0.47161855     0.18400
N764        N  0.14169024  0.04182227  0.44127172    -0.80800
H765        H  0.14501209  0.20439763  0.43797831     0.34000
H766        H  0.18399394  0.19816596  0.44906075     0.38500
H767        H  0.13023472  0.03069605  0.45374090     0.34000
H768        H  0.12432041  0.03732662  0.42979003     0.30700
H769        H  0.09262872  0.09953126  0.38634440     0.34000
H770        H  0.09628297  0.08447243  0.40928398     0.30700
H771        H  0.24016534  0.01604991  0.37875293     0.38500
H772        H  0.25910678  0.04425778  0.39449600     0.34000
C773        C  0.42090057  0.03192302  0.37036602    -0.19700
C774        C  0.44792459  0.03450551  0.38431908     0.36500
C775        C  0.44028211  0.02837059  0.40415739    -0.25700
C776        C  0.40619591  0.02010164  0.41021102     0.02900
C777        C  0.37929078  0.01754302  0.39624557     0.27700
C778        C  0.38687594  0.02380463  0.37651914    -0.24800
N779        N  0.48276097  0.04383323  0.37833775    -0.82200
H780        H  0.46081381  0.03032325  0.41496538     0.13500
C781        C  0.39858146  0.01337940  0.43111936     0.02900
N782        N  0.33633949  0.49438631  0.39909714    -0.80800
H783        H  0.36623478  0.02164114  0.36578323     0.18400
C784        C  0.37435501  0.03531722  0.44071424    -0.25600
C785        C  0.36125092  0.02621986  0.45915007     0.36400
C786        C  0.36229259  0.48711104  0.46642229    -0.19700
C787        C  0.38932727  0.46725857  0.45787872    -0.24900
C788        C  0.41210454  0.98309778  0.44077559     0.27800
H789        H  0.36405234  0.05866768  0.43331194     0.13500
N790        N  0.33431708  0.04830777  0.46741550    -0.82200
H791        H  0.39865851  0.44338593  0.46517912     0.18400
N792        N  0.43681338  0.96025719  0.43108637    -0.80800
H793        H  0.31227112  0.04610235  0.45851254     0.34000
H794        H  0.31496326  0.53130949  0.47884695     0.38500
H795        H  0.43571386  0.43328988  0.43932447     0.34000
H796        H  0.42426396  0.94896353  0.41904794     0.30700
H797        H  0.32072112  0.49172003  0.38668407     0.33600
H798        H  0.33866666  0.46887660  0.40521404     0.30700
H799        H  0.48194841  0.06978411  0.37267611     0.38500
H800        H  0.49950461  0.04452672  0.39037068     0.34000
C801        C  0.13412849  0.25184280  0.07154734    -0.19700
C802        C  0.16782135  0.24128355  0.07737132     0.36500
C803        C  0.18211506  0.25566931  0.09447418    -0.25700
C804        C  0.16314579  0.28011288  0.10578588     0.02900
C805        C  0.13025809  0.29222885  0.09932986     0.27700
C806        C  0.11609801  0.27803067  0.08212391    -0.24800
N807        N  0.18630163  0.21437509  0.06656998    -0.82200
H808        H  0.20724145  0.24630148  0.09964843     0.13500
C809        C  0.17500693  0.28752704  0.12586048     0.02900
N810        N  0.11070361  0.31743430  0.11077689    -0.80800
H811        H  0.09018282  0.28594275  0.07746895     0.18400
C812        C  0.18614233  0.32187483  0.13117862    -0.25600
C813        C  0.19536437  0.32943178  0.15062789     0.36400
C814        C  0.19293781  0.30216853  0.16479067    -0.19700
C815        C  0.18266483  0.26770867  0.15926369    -0.24900
C816        C  0.17343790  0.26015652  0.13998042     0.27800
H817        H  0.18731714  0.34271863  0.12019916     0.13500
N818        N  0.20702240  0.36448104  0.15610274    -0.82200
H819        H  0.18050984  0.24692267  0.17024261     0.18400
N820        N  0.16155139  0.22501440  0.13472289    -0.80800
H821        H  0.20741921  0.38142935  0.14395361     0.34000
H822        H  0.23285593  0.36216256  0.16087063     0.38500
H823        H  0.16215995  0.20788579  0.14679265     0.34000
H824        H  0.13537813  0.22712255  0.13053694     0.30700
H825        H  0.08708799  0.32365785  0.10391987     0.34000
H826        H  0.10426906  0.30506953  0.12399904     0.30700
H827        H  0.19183632  0.22491297  0.05276897     0.38500
H828        H  0.21035016  0.20884208  0.07312461     0.34000
C829        C  0.99501790  0.13478416  0.07122553    -0.19700
C830        C  0.48361333  0.15559178  0.08750169     0.36500
C831        C  0.47070425  0.13765939  0.10395775    -0.25700
C832        C  0.47177502  0.10033259  0.10527290     0.02900
C833        C  0.97679403  0.08038530  0.08835670     0.27700
C834        C  0.99082167  0.09748427  0.07177767    -0.24800
N835        N  0.48196896  0.19396888  0.08726554    -0.82200
H836        H  0.46087141  0.15307482  0.11615953     0.13500
C837        C  0.46359862  0.08341081  0.12426994     0.02900
N838        N  0.97391072  0.04212165  0.08912476    -0.80800
H839        H  0.00041835  0.08157052  0.05971970     0.18400
C840        C  0.42892645  0.07525703  0.12920160    -0.25600
C841        C  0.42026600  0.06305857  0.14808193     0.36400
C842        C  0.44691644  0.05912050  0.16218141    -0.19700
C843        C  0.48168531  0.06627672  0.15689022    -0.24900
C844        C  0.49026317  0.07859428  0.13815658     0.27800
H845        H  0.40857121  0.07928050  0.11845262     0.13500
N846        N  0.38460274  0.05522823  0.15308552    -0.82200
H847        H  0.50211769  0.06394871  0.16774161     0.18400
N848        N  0.02194295  0.09563273  0.13236821    -0.80800
H849        H  0.38306612  0.02797106  0.15633674     0.34000
H850        H  0.36822976  0.05970595  0.14112982     0.38500
H851        H  0.03899193  0.09344338  0.14421293     0.34000
H852        H  0.03165583  0.07875841  0.12150478     0.30700
H853        H  0.98209507  0.03086062  0.07594162     0.34000
H854        H  0.99107606  0.03284798  0.09984948     0.30700
H855        H  0.49033107  0.20453586  0.07395342     0.38500
H856        H  0.49889146  0.20342226  0.09804158     0.34000
C857        C  0.22786843  0.36395219  0.46992111    -0.19700
C858        C  0.19791198  0.37684855  0.46032104     0.36500
C859        C  0.18890622  0.36249019  0.44209128    -0.25700
C860        C  0.20928911  0.33540580  0.43367883     0.02900
C861        C  0.23652109  0.31963345  0.44449714     0.27700
C862        C  0.24573215  0.33426250  0.46255571    -0.24800
N863        N  0.17873543  0.40634596  0.46837404    -0.82200
H864        H  0.16775999  0.37428294  0.43378971     0.13500
C865        C  0.20605765  0.32807134  0.41258950     0.02900
N866        N  0.25602133  0.29032667  0.43644907    -0.80800
H867        H  0.26851007  0.32431502  0.47020688     0.18400
C868        C  0.23504064  0.33514071  0.40060458    -0.25600
C869        C  0.23345338  0.32992645  0.38040562     0.36400
C870        C  0.20222170  0.31740101  0.37208646    -0.19700
C871        C  0.17305714  0.31064325  0.38399398    -0.24900
C872        C  0.17471721  0.31573946  0.40427181     0.27800
H873        H  0.25884390  0.34536816  0.40705718     0.13500
N874        N  0.26311399  0.33792767  0.36825977    -0.82200
H875        H  0.14906508  0.30118217  0.37741973     0.18400
N876        N  0.14493453  0.30839402  0.41642564    -0.80800
H877        H  0.28408426  0.34681856  0.37670945     0.34000
H878        H  0.25618010  0.35915501  0.35910526     0.38500
H879        H  0.12391266  0.29959837  0.40798598     0.34000
H880        H  0.15158861  0.28726812  0.42571429     0.30700
H881        H  0.27552549  0.28209941  0.44612962     0.34000
H882        H  0.23883702  0.26880782  0.43494684     0.30700
H883        H  0.16784352  0.39773498  0.48157023     0.38500
H884        H  0.15784184  0.41316609  0.45929211     0.34000
C885        C  0.41444782  0.33113902  0.16577574    -0.19700
C886        C  0.43170497  0.31070728  0.15144176     0.36500
C887        C  0.42481720  0.31734940  0.13159671    -0.25700
C888        C  0.40102381  0.34395090  0.12604005     0.02900
C889        C  0.38376137  0.36428584  0.14043089     0.27700
C890        C  0.39055118  0.35753524  0.16022232    -0.24800
N891        N  0.45573464  0.28309663  0.15715734    -0.82200
H892        H  0.43799914  0.30190508  0.12044459     0.13500
C893        C  0.39484344  0.35149920  0.10513335     0.02900
N894        N  0.35946541  0.39173192  0.13481562    -0.80800
H895        H  0.37725091  0.37288581  0.17137542     0.18400
C896        C  0.36362245  0.34001001  0.09655302    -0.25600
C897        C  0.35359519  0.35257743  0.07815739     0.36400
C898        C  0.37530131  0.37681111  0.06798420    -0.19700
C899        C  0.40779359  0.38616269  0.07593755    -0.24900
C900        C  0.41767183  0.37392365  0.09457365     0.27800
H901        H  0.34606453  0.32277885  0.10467267     0.13500
N902        N  0.32044796  0.34180479  0.07050920    -0.82200
H903        H  0.42418853  0.40512598  0.06823445     0.18400
N904        N  0.44989376  0.38552498  0.10323802    -0.80800
H905        H  0.30495177  0.36452238  0.06855871     0.34000
H906        H  0.32462222  0.33008226  0.05687472     0.38500
H907        H  0.46369708  0.40194585  0.09357184     0.34000
H908        H  0.44369597  0.40127970  0.11533639     0.30700
H909        H  0.34876136  0.40398347  0.14714659     0.34000
H910        H  0.37346099  0.41148194  0.12734454     0.30700
H911        H  0.47683487  0.29536327  0.16410920     0.38500
H912        H  0.46584987  0.27020966  0.14486629     0.34000
C913        C  0.43213148  0.30370075  0.37132167    -0.19700
C914        C  0.43610081  0.26857588  0.37865912     0.36500
C915        C  0.44212259  0.26338133  0.39857496    -0.25700
C916        C  0.44538522  0.29235005  0.41129627     0.02900
C917        C  0.44047351  0.32739435  0.40423828     0.27700
C918        C  0.43381186  0.33276964  0.38423525    -0.24800
N919        N  0.43607475  0.23836805  0.36571607    -0.82200
H920        H  0.44666536  0.23656566  0.40402154     0.13500
C921        C  0.45928015  0.28485689  0.43100279     0.02900
N922        N  0.44312851  0.35722371  0.41730109    -0.80800
H923        H  0.43077294  0.35966236  0.37859803     0.18400
C924        C  0.99875160  0.29741075  0.43662978    -0.25600
C925        C  0.01568537  0.28355317  0.45302823     0.36400
C926        C  0.00017481  0.25532033  0.46358701    -0.19700
C927        C  0.46062235  0.24602491  0.45943271    -0.24900
C928        C  0.44234799  0.26038376  0.44349664     0.27800
H929        H  0.01178559  0.31757754  0.42789005     0.13500
N930        N  0.04917707  0.29757806  0.45828203    -0.82200
H931        H  0.44825076  0.22618002  0.46867821     0.18400
N932        N  0.40729512  0.24902162  0.43932692    -0.80800
H933        H  0.06749085  0.27689376  0.45767931     0.34000
H934        H  0.04777029  0.30669305  0.47267011     0.38500
H935        H  0.39875801  0.23053510  0.44975453     0.34000
H936        H  0.39108231  0.27138018  0.44057092     0.30700
H937        H  0.43918654  0.38116607  0.40973702     0.34000
H938        H  0.42280927  0.35504927  0.42744490     0.30700
H939        H  0.45789619  0.24066260  0.35660769     0.38500
H940        H  0.43906517  0.21449700  0.37349450     0.34000
C941        C  0.43066900  0.80800644  0.35004096     0.03300
C942        C  0.45477186  0.83036904  0.34045346    -0.12900
C943        C  0.45704617  0.83061396  0.32001067     0.00800
C944        C  0.43498967  0.80838898  0.30916992    -0.11400
C945        C  0.41011714  0.78681758  0.31855122     0.03300
C946        C  0.40724056  0.78774744  0.33891288    -0.10800
H947        H  0.47330483  0.84571913  0.34892295     0.08900
H948        H  0.43746580  0.80767290  0.29342326     0.06400
H949        H  0.38832405  0.77081844  0.34621080     0.06200
C950        C  0.42162665  0.82260665  0.18611920     0.03300
C951        C  0.44748660  0.84094761  0.19651757    -0.12900
C952        C  0.45441701  0.83219777  0.21604454     0.00800
C953        C  0.43455877  0.80545482  0.22523247    -0.11400
C954        C  0.40793726  0.78761976  0.21511720     0.03300
C955        C  0.40142768  0.79654716  0.19556642    -0.10800
H956        H  0.46263605  0.86149037  0.18923494     0.08900
H957        H  0.43968152  0.79850000  0.24030107     0.06400
H958        H  0.38155802  0.78245249  0.18740626     0.06200
C959        C  0.19920590  0.80986991  0.35229185     0.03300
C960        C  0.17354142  0.82921518  0.34223480    -0.12900
C961        C  0.16864228  0.82438209  0.32210647     0.00800
C962        C  0.18922125  0.79923683  0.31213975    -0.11400
C963        C  0.21547036  0.78014510  0.32199852     0.03300
C964        C  0.22007936  0.78541301  0.34208671    -0.10800
H965        H  0.15778989  0.84841098  0.35011862     0.08900
H966        H  0.18564651  0.79545838  0.29659618     0.06400
H967        H  0.23976136  0.77036386  0.34991760     0.06200
C968        C  0.43936552  0.54937890  0.18402374     0.03300
C969        C  0.41494871  0.57032491  0.19410913    -0.12900
C970        C  0.41336107  0.56921069  0.21456210     0.00800
C971        C  0.43588393  0.54641425  0.22486329    -0.11400
C972        C  0.45910263  0.52410807  0.21478960     0.03300
C973        C  0.46061272  0.52558419  0.19438779    -0.10800
H974        H  0.39924807  0.58951148  0.18613714     0.08900
H975        H  0.43544031  0.54612923  0.24068284     0.06400
H976        H  0.47989159  0.50993289  0.18657622     0.06200
C977        C  0.48440966  0.85149642  0.31001517     0.42600
N978        N  0.02724064  0.86386936  0.29062067     0.01500
C979        C  0.12981183  0.51641625  0.29057591    -0.06400
H980        H  0.99694617  0.53983310  0.28222143     0.07000
C981        C  0.00392893  0.97169950  0.21782817    -0.06700
Co982      Co  0.06648010  0.92849580  0.30349663     0.74200
N983        N  0.02939849  0.99232023  0.28796290    -0.25900
Co984      Co  0.06721578  0.99111957  0.26598341     0.74100
C985        C  0.98515011  0.50433330  0.22509842     0.42700
N986        N  0.02758652  0.88455792  0.23305028     0.01100
N987        N  0.02865205  0.98983381  0.24438700     0.01200
N988        N  0.12933757  0.97454784  0.31542208    -0.46800
H989        H  0.99689517  0.89957962  0.32959738     0.07000
N990        N  0.02911638  0.96880677  0.30234628     0.01500
N991        N  0.10513755  0.98857544  0.24399272     0.01200
C992        C  0.14616338  0.00193615  0.22389514     0.42800
N993        N  0.02762506  0.86086419  0.24733330    -0.25400
C994        C  0.12731104  0.88008414  0.31774985    -0.06300
N995        N  0.00181340  0.84053529  0.29367024    -0.46500
N996        N  0.12988021  0.01244462  0.24043041    -0.46700
C997        C  0.14277329  0.84632922  0.31149473     0.42600
N998        N  0.10514815  0.96774628  0.30210774     0.01500
N999        N  0.10381162  0.86031166  0.24727697    -0.25400
N1000       N  0.02796328  0.88934388  0.30390018    -0.25900
N1001       N  0.10376405  0.88363346  0.23277960     0.01100
H1002       H  0.13601937  0.81464844  0.25380349     0.07000
H1003       H  0.13382742  0.95340974  0.20446338     0.07000
N1004       N  0.10551696  0.99099202  0.28757319    -0.25900
N1005       N  0.02866337  0.96437640  0.23108625    -0.25500
N1006       N  0.10355368  0.86212619  0.29089032     0.01500
C1007       C  0.98636259  0.50553854  0.30966245     0.42900
C1008       C  0.00124608  0.83795810  0.24458080    -0.06800
N1009       N  0.10419625  0.96309746  0.23073436    -0.25500
H1010       H  0.99871640  0.95635438  0.20480451     0.07000
N1011       N  0.00425097  0.97511080  0.31539623    -0.46800
H1012       H  0.49421137  0.81548854  0.25381087     0.07000
C1013       C  0.14666219  0.84883677  0.22640629     0.42700
C1014       C  0.00221917  0.88362257  0.31680010    -0.06300
Co1015     Co  0.06562377  0.86105508  0.26901083     0.73800
N1016       N  0.00237910  0.87888413  0.22021396    -0.46500
C1017       C  0.14730343  0.00324751  0.30885591     0.43000
N1018       N  0.12670162  0.83673469  0.29477344    -0.46500
Co1019     Co  0.06600544  0.92377664  0.23152855     0.73900
C1020       C  0.12908105  0.96927671  0.21736256    -0.06800
C1021       C  0.00252214  0.51691114  0.29132631    -0.06400
N1022       N  0.10340983  0.88770168  0.30411473    -0.25900
N1023       N  0.00223412  0.51461970  0.24137860    -0.46700
H1024       H  0.13510925  0.53973121  0.28169905     0.07000
C1025       C  0.13014722  0.83735175  0.24458347    -0.06800
Cl1026     Cl  0.06640283  0.92612582  0.26751094    -0.49800
C1027       C  0.48320406  0.84992348  0.22655412     0.42700
H1028       H  0.13204918  0.89550887  0.33079931     0.07000
N1029       N  0.12873099  0.87744709  0.21977809    -0.46500
C1030       C  0.19974180  0.80794823  0.18538329     0.03300
C1031       C  0.17624843  0.83044941  0.19530979    -0.12900
C1032       C  0.17460554  0.82991005  0.21579523     0.00800
C1033       C  0.19726816  0.80760212  0.22622608    -0.11400
C1034       C  0.22100534  0.78549518  0.21649681     0.03300
C1035       C  0.22278897  0.78641524  0.19611833    -0.10800
H1036       H  0.15731260  0.84588026  0.18711272     0.08900
H1037       H  0.19571463  0.80665225  0.24199782     0.06400
H1038       H  0.24008011  0.76821800  0.18849927     0.06200
C1039       C  0.42101208  0.53017073  0.34802893     0.03300
C1040       C  0.40128090  0.55577518  0.33786009    -0.12900
C1041       C  0.40937774  0.56429726  0.31845579     0.00800
C1042       C  0.43648964  0.54608050  0.30906190    -0.11400
C1043       C  0.95764379  0.52357314  0.32021444     0.03300
C1044       C  0.44853217  0.51241751  0.33847102    -0.10800
H1045       H  0.38052292  0.56994373  0.34532552     0.08900
H1046       H  0.44222988  0.55199627  0.29396264     0.06400
H1047       H  0.96587613  0.49653310  0.34771674     0.06200
C1048       C  0.18978062  0.54977867  0.35198976     0.03300
C1049       C  0.21546807  0.57014077  0.34238460    -0.12900
C1050       C  0.21812489  0.56938249  0.32195270     0.00800
C1051       C  0.19562629  0.54744000  0.31121644    -0.11400
C1052       C  0.17084748  0.52598087  0.32064346     0.03300
C1053       C  0.16817940  0.52702380  0.34105172    -0.10800
H1054       H  0.23124898  0.58875592  0.35064396     0.08900
H1055       H  0.19709811  0.54747299  0.29541664     0.06400
H1056       H  0.14784912  0.51189528  0.34835872     0.06200
C1057       C  0.20721111  0.53713858  0.18533403     0.03300
C1058       C  0.22742345  0.56071888  0.19645780    -0.12900
C1059       C  0.22040413  0.56567379  0.21632159     0.00800
C1060       C  0.19325874  0.54636879  0.22515959    -0.11400
C1061       C  0.17316203  0.52228639  0.21432356     0.03300
C1062       C  0.18018459  0.51778891  0.19435315    -0.10800
H1063       H  0.24769028  0.57632096  0.18940262     0.08900
H1064       H  0.18774836  0.54992122  0.24053306     0.06400
H1065       H  0.16438373  0.49978691  0.18572360     0.06200
C1066       C  0.23803234  0.75478603  0.31136337     0.42600
N1067       N  0.25352126  0.71409518  0.29120394     0.01500
C1068       C  0.40253682  0.61108573  0.29020759    -0.06400
H1069       H  0.42345608  0.74884670  0.28013874     0.07000
C1070       C  0.35645074  0.74094536  0.21809611    -0.06700
Co1071     Co  0.31823972  0.67626590  0.30374290     0.74200
N1072       N  0.37919621  0.71571642  0.28717560    -0.25900
Co1073     Co  0.37896784  0.67643567  0.26590615     0.74100
C1074       C  0.38827759  0.75860990  0.22476709     0.42700
N1075       N  0.27388743  0.71384140  0.23344070     0.01100
N1076       N  0.37639551  0.71510965  0.24405268     0.01200
N1077       N  0.36325343  0.61163075  0.31494946    -0.46800
H1078       H  0.28625235  0.74450246  0.33077522     0.07000
N1079       N  0.35652027  0.71577251  0.30169704     0.01500
N1080       N  0.37711836  0.63696341  0.24456853     0.01200
C1081       C  0.39090083  0.59443704  0.22518749     0.42800
N1082       N  0.25127451  0.71387047  0.24798649    -0.25400
C1083       C  0.27290129  0.61185565  0.31821968    -0.06300
N1084       N  0.22865930  0.73775035  0.29486570    -0.46500
N1085       N  0.40101046  0.61209022  0.24135908    -0.46700
C1086       C  0.24087702  0.59465689  0.31145672     0.42600
N1087       N  0.35732786  0.63768866  0.30224616     0.01500
N1088       N  0.25173135  0.63611691  0.24823075    -0.25400
N1089       N  0.27858853  0.71433028  0.30438041    -0.25900
N1090       N  0.27447208  0.63600581  0.23375910     0.01100
H1091       H  0.20662749  0.60400939  0.25483217     0.07000
H1092       H  0.34331621  0.60539252  0.20550361     0.07000
N1093       N  0.38004894  0.63797317  0.28775347    -0.25900
N1094       N  0.35119351  0.71446817  0.23097629    -0.25500
N1095       N  0.25486228  0.63627175  0.29141339     0.01500
C1096       C  0.39006370  0.76034737  0.30737560     0.42900
C1097       C  0.22905871  0.74104301  0.24552963    -0.06800
N1098       N  0.35209421  0.63692184  0.23136509    -0.25500
H1099       H  0.34028654  0.74660616  0.20553987     0.07000
N1100       N  0.36244871  0.74176065  0.31433962    -0.46800
H1101       H  0.20705852  0.74710486  0.25486382     0.07000
C1102       C  0.23992134  0.59257720  0.22750501     0.42700
C1103       C  0.27117187  0.73925294  0.31776687    -0.06300
Co1104     Co  0.25219500  0.67507569  0.26967429     0.73800
N1105       N  0.26796630  0.73964424  0.22061795    -0.46500
C1106       C  0.39127467  0.59354671  0.30817541     0.43000
N1107       N  0.23113402  0.61141122  0.29489764    -0.46500
Co1108     Co  0.31278599  0.67525506  0.23192148     0.73900
C1109       C  0.35863597  0.61105875  0.21837458    -0.06800
C1110       C  0.40133402  0.74300369  0.28944082    -0.06400
N1111       N  0.27961742  0.63710351  0.30477405    -0.25900
N1112       N  0.39921807  0.74103580  0.24086056    -0.46700
H1113       H  0.42445764  0.60535557  0.28076358     0.07000
C1114       C  0.22896377  0.60949900  0.24563274    -0.06800
Cl1115     Cl  0.31555466  0.67573859  0.26782929    -0.49800
C1116       C  0.24034733  0.75818714  0.22747704     0.42700
H1117       H  0.28784223  0.60706163  0.33134800     0.07000
N1118       N  0.26811662  0.61058537  0.22084867    -0.46500
N1119       N  0.30064464  0.94287198  0.55014705    -0.36500
N1120       N  0.34159400  0.97812235  0.51982532    -0.57000
N1121       N  0.30892298  0.93119628  0.49083248    -0.36500
N1122       N  0.26478484  0.89915499  0.52081448    -0.57000
C1123       C  0.31566039  0.96912601  0.56083854     0.27100
C1124       C  0.27576041  0.92721134  0.56131315     0.27100
C1125       C  0.32611293  0.95430271  0.47904254     0.27100
C1126       C  0.28575046  0.91324479  0.47962723     0.27100
C1127       C  0.35679712  0.99339384  0.53552576     0.35700
C1128       C  0.36101768  0.98727842  0.50410052     0.35700
C1129       C  0.25168306  0.88361330  0.53702386     0.35700
C1130       C  0.25517384  0.87842235  0.50564567     0.35700
C1131       C  0.30017406  0.96983802  0.57916757    -0.21800
C1132       C  0.27499926  0.94362916  0.57942282    -0.21800
C1133       C  0.31417239  0.95040913  0.46004754    -0.21700
C1134       C  0.28882844  0.92460950  0.46041865    -0.21700
C1135       C  0.38165193  0.49969646  0.52743161    -0.22800
C1136       C  0.38239252  0.49664282  0.50741965    -0.22800
C1137       C  0.23321396  0.85305150  0.53208004    -0.22800
C1138       C  0.23526993  0.84989600  0.51215246    -0.22800
C1139       C  0.34425359  0.99103398  0.55498443    -0.18200
C1140       C  0.25505019  0.89719184  0.55615293    -0.18200
C1141       C  0.26276685  0.88586893  0.48592615    -0.18200
C1142       C  0.35324221  0.97793767  0.48459706    -0.18200
H1143       H  0.30653318  0.98702928  0.59130597     0.14800
H1144       H  0.25835329  0.93707882  0.59170235     0.14800
H1145       H  0.32282677  0.96456894  0.44713234     0.14800
H1146       H  0.27445045  0.91524310  0.44785172     0.14800
H1147       H  0.40108347  0.51292831  0.53629591     0.13000
H1148       H  0.40249434  0.50703210  0.49784643     0.13000
H1149       H  0.21941426  0.83507687  0.54179023     0.13000
H1150       H  0.22345337  0.82906445  0.50345342     0.13000
H1151       H  0.30829722  0.93458147  0.53646107     0.26300
H1152       H  0.31398490  0.92673327  0.50543524     0.26300
N1153       N  0.06087209  0.69348967  0.05050482    -0.36500
N1154       N  0.11004798  0.72294511  0.02176494    -0.57000
N1155       N  0.07457666  0.68287541  0.99268705    -0.36500
N1156       N  0.02773140  0.64989904  0.02076579    -0.57000
C1157       C  0.08619675  0.70744105  0.06194446     0.27100
C1158       C  0.04309438  0.66933905  0.06143405     0.27100
C1159       C  0.10399710  0.69271180  0.98318458     0.27100
C1160       C  0.06100451  0.65496271  0.98293045     0.27100
C1161       C  0.11704994  0.74420070  0.03704125     0.35700
C1162       C  0.12334089  0.73934075  0.00585616     0.35700
C1163       C  0.00490730  0.64495330  0.03551818     0.35700
C1164       C  0.01067013  0.64185176  0.00412662     0.35700
C1165       C  0.08430134  0.69220862  0.08039554    -0.21800
C1166       C  0.05713967  0.66817473  0.08007045    -0.21800
C1167       C  0.10941265  0.67035723  0.96734133    -0.21700
C1168       C  0.08235476  0.64630768  0.96729154    -0.21700
C1169       C  0.13558786  0.77405896  0.03094365    -0.22800
C1170       C  0.13940358  0.77106209  0.01102552    -0.22800
C1171       C  0.46920490  0.63572710  0.03072070    -0.22800
C1172       C  0.47128094  0.63360770  0.01063450    -0.22800
C1173       C  0.10975842  0.73491184  0.05650868    -0.18200
C1174       C  0.01332034  0.64983199  0.05534393    -0.18200
C1175       C  0.02674379  0.64209672  0.98557688    -0.18200
C1176       C  0.12272126  0.72430914  0.98707546    -0.18200
H1177       H  0.10067173  0.69795119  0.09286276     0.14800
H1178       H  0.04859460  0.65184652  0.09223099     0.14800
H1179       H  0.12981657  0.67175672  0.95646456     0.14800
H1180       H  0.07766276  0.62612774  0.95631505     0.14800
H1181       H  0.14564307  0.79542200  0.03994352     0.13000
H1182       H  0.15304340  0.78956021  0.00154366     0.13000
H1183       H  0.44642046  0.63001262  0.03955734     0.13000
H1184       H  0.45051932  0.62570680  0.00086232     0.13000
H1185       H  0.05484022  0.70153458  0.03638602     0.26300
H1186       H  0.06204281  0.69711230  0.00367214     0.26300
N1187       N  0.06729526  0.70007675  0.48404620    -0.36500
N1188       N  0.10601940  0.66038410  0.51349753    -0.57000
N1189       N  0.07168645  0.70313732  0.54368609    -0.36500
N1190       N  0.02918500  0.73889337  0.51437694    -0.57000
C1191       C  0.08167298  0.67399646  0.47298412     0.27100
C1192       C  0.04147756  0.71530439  0.47344291     0.27100
C1193       C  0.08846260  0.67871353  0.55482285     0.27100
C1194       C  0.04814775  0.71985829  0.55525430     0.27100
C1195       C  0.12254656  0.64784164  0.49750905     0.35700
C1196       C  0.12490747  0.64954577  0.52903431     0.35700
C1197       C  0.01661549  0.75627375  0.49863471     0.35700
C1198       C  0.01857903  0.75756962  0.53011785     0.35700
C1199       C  0.06494679  0.67291265  0.45504598    -0.21800
C1200       C  0.03972655  0.69900988  0.45530808    -0.21800
C1201       C  0.07591038  0.68054087  0.57381914    -0.21700
C1202       C  0.05061641  0.70644458  0.57409347    -0.21700
C1203       C  0.15192097  0.62856914  0.50294091    -0.22800
C1204       C  0.15329702  0.62949865  0.52295775    -0.22800
C1205       C  0.49900314  0.78769980  0.50391316    -0.22800
C1206       C  0.50028680  0.78866136  0.52393189    -0.22800
C1207       C  0.11060052  0.65225817  0.47815894    -0.18200
C1208       C  0.02043243  0.74459410  0.47921861    -0.18200
C1209       C  0.02519378  0.74771412  0.54960215    -0.18200
C1210       C  0.11563839  0.65555906  0.54867032    -0.18200
H1211       H  0.07045960  0.65526567  0.44293826     0.14800
H1212       H  0.02213816  0.70530549  0.44343580     0.14800
H1213       H  0.08411524  0.66491703  0.58629930     0.14800
H1214       H  0.03579162  0.71445463  0.58680939     0.14800
H1215       H  0.17032277  0.61503579  0.49351054     0.13000
H1216       H  0.17282682  0.61674901  0.53200902     0.13000
H1217       H  0.48458908  0.80597423  0.49468054     0.13000
H1218       H  0.48714382  0.80780988  0.53319873     0.13000
H1219       H  0.07593323  0.70846926  0.49757445     0.26300
H1220       H  0.07705699  0.70904433  0.52925836     0.26300
N1221       N  0.31671699  0.93608794  0.98475484    -0.36500
N1222       N  0.35555098  0.89789401  0.01506617    -0.57000
N1223       N  0.31482053  0.93574990  0.04414991    -0.36500
N1224       N  0.27966969  0.97765379  0.01411430    -0.57000
C1225       C  0.34127140  0.91926209  0.97394099     0.27100
C1226       C  0.30248409  0.96197992  0.97344687     0.27100
C1227       C  0.33943740  0.92041010  0.05554916     0.27100
C1228       C  0.29863232  0.96081844  0.05503832     0.27100
C1229       C  0.36640646  0.87900226  0.99947906     0.35700
C1230       C  0.36644398  0.87988021  0.03101254     0.35700
C1231       C  0.26325501  0.99031468  0.99812581     0.35700
C1232       C  0.26088227  0.98869176  0.02964476     0.35700
C1233       C  0.34234250  0.93435596  0.95543697    -0.21800
C1234       C  0.31790252  0.96122368  0.95512267    -0.21800
C1235       C  0.33863777  0.93583538  0.07394869    -0.21700
C1236       C  0.31296595  0.96131277  0.07360827    -0.21700
C1237       C  0.38490186  0.84910700  0.00552713    -0.22800
C1238       C  0.38495308  0.84969917  0.02558310    -0.22800
C1239       C  0.23799497  0.51931576  0.00369866    -0.22800
C1240       C  0.23708990  0.51924490  0.02375707    -0.22800
C1241       C  0.36170779  0.88960855  0.97989908    -0.18200
C1242       C  0.27471627  0.98506645  0.97876538    -0.18200
C1243       C  0.26963888  0.98162554  0.04923625    -0.18200
C1244       C  0.36086760  0.89114238  0.05036108    -0.18200
H1245       H  0.35891179  0.92671640  0.94333435     0.14800
H1246       H  0.31205463  0.97812225  0.94271731     0.14800
H1247       H  0.35445166  0.92914157  0.08650367     0.14800
H1248       H  0.30541510  0.97801165  0.08577795     0.14800
H1249       H  0.39733424  0.82918726  0.99644234     0.13000
H1250       H  0.39727899  0.83028747  0.03506677     0.13000
H1251       H  0.21911532  0.53189726  0.99416030     0.13000
H1252       H  0.21733156  0.53169094  0.03277783     0.13000
H1253       H  0.30879577  0.92888512  0.99864488     0.26300
H1254       H  0.30763675  0.92783637  0.03027634     0.26300
C1255       C  0.44476158  0.81273713  0.85007966     0.03300
C1256       C  0.46704966  0.83506704  0.83925894    -0.12900
C1257       C  0.46486821  0.83644123  0.81886419     0.00800
C1258       C  0.44102938  0.81414070  0.80920380    -0.11400
C1259       C  0.41966591  0.79047814  0.81975081     0.03300
C1260       C  0.42185578  0.78969117  0.84020606    -0.10800
H1261       H  0.48423585  0.85333171  0.84686337     0.08900
H1262       H  0.43874891  0.81545567  0.79346309     0.06400
H1263       H  0.40370552  0.77341255  0.84848956     0.06200
C1264       C  0.44963399  0.58460077  0.84865509     0.03300
C1265       C  0.47213286  0.56144173  0.83819063    -0.12900
C1266       C  0.46571695  0.55352178  0.81845297     0.00800
C1267       C  0.43871070  0.57125849  0.80870971    -0.11400
C1268       C  0.41648946  0.59441081  0.81863819     0.03300
C1269       C  0.42090036  0.59952579  0.83868583    -0.10800
H1270       H  0.49427214  0.54911948  0.84532060     0.08900
H1271       H  0.43485645  0.56708363  0.79326070     0.06400
H1272       H  0.40135591  0.61476999  0.84643212     0.06200
C1273       C  0.18543311  0.57290294  0.84974843     0.03300
C1274       C  0.20718292  0.59596396  0.83904553    -0.12900
C1275       C  0.20493499  0.59728092  0.81858629     0.00800
C1276       C  0.18014016  0.57621035  0.80899812    -0.11400
C1277       C  0.15744904  0.55413989  0.81959895     0.03300
C1278       C  0.15982077  0.55294265  0.84000194    -0.10800
H1279       H  0.22773013  0.61043017  0.84648221     0.08900
H1280       H  0.17898541  0.57635267  0.79319206     0.06400
H1281       H  0.14389422  0.53422636  0.84818967     0.06200
C1282       C  0.17125296  0.80101371  0.85017355     0.03300
C1283       C  0.15029819  0.82566795  0.84013308    -0.12900
C1284       C  0.15666876  0.83349473  0.82036144     0.00800
C1285       C  0.18390631  0.81561470  0.81055868    -0.11400
C1286       C  0.20417173  0.78975610  0.82025572     0.03300
C1287       C  0.19769546  0.78279527  0.84009338    -0.10800
H1288       H  0.12996445  0.83968160  0.84800570     0.08900
H1289       H  0.18898107  0.82141749  0.79531705     0.06400
H1290       H  0.21349351  0.76349903  0.84790144     0.06200
C1291       C  0.17059916  0.58712183  0.68374671     0.03300
C1292       C  0.19651282  0.60725167  0.69308131    -0.12900
C1293       C  0.20334923  0.60221009  0.71298838     0.00800
C1294       C  0.18388112  0.57695224  0.72352350    -0.11400
C1295       C  0.15754066  0.55698918  0.71439994     0.03300
C1296       C  0.15067912  0.56258162  0.69451046    -0.10800
H1297       H  0.21186233  0.62609099  0.68465077     0.08900
H1298       H  0.18932025  0.57291980  0.73887041     0.06400
H1299       H  0.13089277  0.54688692  0.68717624     0.06200
C1300       C  0.43328942  0.56469959  0.68183845     0.03300
C1301       C  0.45842405  0.54494604  0.69222594    -0.12900
C1302       C  0.46145711  0.54836554  0.71255125     0.00800
C1303       C  0.43952653  0.57233069  0.72246148    -0.11400
C1304       C  0.41580803  0.59390158  0.71215081     0.03300
C1305       C  0.41309527  0.59025472  0.69178091    -0.10800
H1306       H  0.47398621  0.52519382  0.68461596     0.08900
H1307       H  0.44097598  0.57426434  0.73822203     0.06400
H1308       H  0.39339312  0.60522494  0.68389976     0.06200
C1309       C  0.39275967  0.76938072  0.80949485     0.42600
N1310       N  0.35073285  0.75696960  0.78995102     0.01500
C1311       C  0.24651804  0.60643672  0.78855675    -0.06400
H1312       H  0.37776571  0.57967462  0.78039975     0.07000
C1313       C  0.37583825  0.65099838  0.71633488    -0.06700
Co1314     Co  0.31185737  0.69135915  0.80203146     0.74200
N1315       N  0.34859417  0.62773286  0.78611100    -0.25900
Co1316     Co  0.31141075  0.63011728  0.76410963     0.74100
C1317       C  0.39152201  0.61743794  0.72291983     0.42700
N1318       N  0.35117582  0.73858290  0.73194639     0.01100
N1319       N  0.35041074  0.63227260  0.74267356     0.01200
N1320       N  0.24911066  0.64566791  0.81361201    -0.46800
H1321       H  0.38101469  0.72014925  0.82870128     0.07000
N1322       N  0.34894985  0.65093717  0.80057850     0.01500
N1323       N  0.27389768  0.63359746  0.74219699     0.01200
C1324       C  0.23181843  0.62186187  0.72266341     0.42800
N1325       N  0.35054868  0.76179851  0.74642521    -0.25400
C1326       C  0.24909819  0.73698452  0.81609033    -0.06300
N1327       N  0.37573163  0.78060958  0.79335051    -0.46500
N1328       N  0.24843423  0.61049466  0.73889031    -0.46700
C1329       C  0.23225569  0.77011439  0.80991131     0.42600
N1330       N  0.27337566  0.65234789  0.80030622     0.01500
N1331       N  0.27466179  0.76116388  0.74635908    -0.25400
N1332       N  0.35023254  0.73086999  0.80295187    -0.25900
N1333       N  0.27536302  0.73841916  0.73165624     0.01100
H1334       H  0.24142700  0.80586301  0.75318334     0.07000
H1335       H  0.24438453  0.67085489  0.70342464     0.07000
N1336       N  0.27280832  0.62948077  0.78567004    -0.25900
N1337       N  0.35085389  0.65817052  0.72954413    -0.25500
N1338       N  0.27397765  0.75763269  0.79002087     0.01500
C1339       C  0.38857496  0.61304686  0.80796964     0.42900
C1340       C  0.37520944  0.78649622  0.74327811    -0.06800
N1341       N  0.27506648  0.65940349  0.72907779    -0.25500
H1342       H  0.38134953  0.66654764  0.70336867     0.07000
N1343       N  0.37234651  0.64297698  0.81410844    -0.46800
H1344       H  0.37968746  0.80975591  0.75225803     0.07000
C1345       C  0.23194456  0.77248357  0.72544813     0.42700
C1346       C  0.37570843  0.73651883  0.81601797    -0.06300
Co1347     Co  0.31246128  0.76014165  0.76821612     0.73800
N1348       N  0.37496357  0.74650798  0.71854080    -0.46500
C1349       C  0.23085647  0.61734984  0.80706138     0.43000
N1350       N  0.24913730  0.78148190  0.79367100    -0.46500
Co1351     Co  0.31330529  0.69873644  0.73016448     0.73900
C1352       C  0.24952517  0.65423384  0.71602707    -0.06800
C1353       C  0.37299824  0.60287734  0.78939034    -0.06400
N1354       N  0.27441906  0.73147112  0.80294358    -0.25900
N1355       N  0.37420542  0.60735466  0.73920848    -0.46700
H1356       H  0.24055696  0.58366378  0.77946906     0.07000
C1357       C  0.24795233  0.78370222  0.74376332    -0.06800
Cl1358     Cl  0.31240613  0.69509935  0.76612749    -0.49800
C1359       C  0.39134183  0.77631638  0.72478570     0.42700
H1360       H  0.24376093  0.72018231  0.82860225     0.07000
N1361       N  0.25043998  0.74447630  0.71866757    -0.46500
C1362       C  0.45073177  0.80809058  0.68380219     0.03300
C1363       C  0.42454051  0.78935457  0.69394880    -0.12900
C1364       C  0.41855171  0.79602164  0.71387029     0.00800
C1365       C  0.43875218  0.82184897  0.72346203    -0.11400
C1366       C  0.46536359  0.84016434  0.71359311     0.03300
C1367       C  0.47136468  0.83299172  0.69380410    -0.10800
H1368       H  0.40896479  0.76967352  0.68633257     0.08900
H1369       H  0.43437955  0.82720942  0.73878988     0.06400
H1370       H  0.49150342  0.84739028  0.68594013     0.06200
C1371       C  0.17480881  0.80981236  0.68507174     0.03300
C1372       C  0.20038622  0.78933536  0.69474774    -0.12900
C1373       C  0.20284242  0.79008235  0.71520291     0.00800
C1374       C  0.17953710  0.81111884  0.72591071    -0.11400
C1375       C  0.15412098  0.83164676  0.71649564     0.03300
C1376       C  0.15078428  0.82959063  0.69620661    -0.10800
H1377       H  0.22011762  0.77533908  0.68639038     0.08900
H1378       H  0.18195662  0.81245690  0.74162785     0.06400
H1379       H  0.13152668  0.84605245  0.68888499     0.06200
C1380       C  0.13584696  0.86125106  0.81020102     0.42600
N1381       N  0.12301180  0.90439477  0.79074774     0.01500
C1382       C  0.47465736  0.50843455  0.78975950    -0.06400
H1383       H  0.45228735  0.87539732  0.78035999     0.07000
C1384       C  0.01867191  0.88181765  0.71684390    -0.06700
Co1385     Co  0.05892843  0.94378762  0.80319183     0.74200
N1386       N  0.99721634  0.90566976  0.78681601    -0.25900
Co1387     Co  0.49853234  0.94716168  0.76587453     0.74100
C1388       C  0.48632341  0.86716930  0.72394081     0.42700
N1389       N  0.10297922  0.90490525  0.73299326     0.01100
N1390       N  0.00041986  0.90665942  0.74343541     0.01200
N1391       N  0.01423051  0.51117018  0.81295167    -0.46800
H1392       H  0.08751723  0.87258933  0.82941004     0.07000
N1393       N  0.01945690  0.90525064  0.80152427     0.01500
N1394       N  0.50151283  0.98663140  0.74441401     0.01200
C1395       C  0.48504040  0.52451555  0.72360982     0.42800
N1396       N  0.12558817  0.90447014  0.74751139    -0.25400
C1397       C  0.10331246  0.51120233  0.81596947    -0.06300
N1398       N  0.14645260  0.87903586  0.79407484    -0.46500
N1399       N  0.47565344  0.50732357  0.74014572    -0.46700
C1400       C  0.13514232  0.52870744  0.80909540     0.42600
N1401       N  0.02063998  0.98330701  0.80175239     0.01500
N1402       N  0.12753860  0.98237236  0.74707741    -0.25400
N1403       N  0.09765284  0.90456709  0.80380404    -0.25900
N1404       N  0.10485361  0.98287722  0.73259922     0.01100
H1405       H  0.17154883  0.51779861  0.75288209     0.07000
H1406       H  0.03336309  0.51645618  0.70264777     0.07000
N1407       N  0.49830995  0.98580453  0.78750671    -0.25900
N1408       N  0.02551242  0.90689858  0.73023948    -0.25500
N1409       N  0.12325649  0.98273933  0.79051645     0.01500
C1410       C  0.98347892  0.86280348  0.80784555     0.42900
C1411       C  0.14684849  0.87644520  0.74532939    -0.06800
N1412       N  0.02671305  0.98426846  0.73054673    -0.25500
H1413       H  0.03411344  0.87659007  0.70393763     0.07000
N1414       N  0.01177251  0.88039116  0.81468454    -0.46800
H1415       H  0.16856196  0.86986170  0.75474533     0.07000
C1416       C  0.13865553  0.52906222  0.72538470     0.42700
C1417       C  0.10346032  0.87826885  0.81674123    -0.06300
Co1418     Co  0.12562149  0.94355111  0.76897686     0.73800
N1419       N  0.10801445  0.87849587  0.72047800    -0.46500
C1420       C  0.48540087  0.52561577  0.80788543     0.43000
N1421       N  0.14559038  0.51145592  0.79285209    -0.46500
Co1422     Co  0.06518529  0.94479316  0.73118088     0.73900
C1423       C  0.01855038  0.51129210  0.71580594    -0.06800
C1424       C  0.47423390  0.88106284  0.78976891    -0.06400
N1425       N  0.09821079  0.98230201  0.80377654    -0.25900
N1426       N  0.47607233  0.88410743  0.74036056    -0.46700
H1427       H  0.45252785  0.51381132  0.78042853     0.07000
C1428       C  0.14937962  0.51217439  0.74363394    -0.06800
Cl1429     Cl  0.06216045  0.94432275  0.76717316    -0.49800
C1430       C  0.13497326  0.85909928  0.72750047     0.42700
H1431       H  0.08781792  0.51648014  0.82885231     0.07000
N1432       N  0.11044504  0.51110655  0.71882098    -0.46500
C1433       C  0.19432766  0.56386346  0.87017599    -0.19700
C1434       C  0.20915351  0.53028391  0.87449716     0.36500
C1435       C  0.21845097  0.52212472  0.89375941    -0.25700
C1436       C  0.21341899  0.54680287  0.90886500     0.02900
C1437       C  0.19844835  0.58043898  0.90461081     0.27700
C1438       C  0.18925402  0.58877806  0.88518967    -0.24800
N1439       N  0.21530759  0.50483803  0.85917520    -0.82200
H1440       H  0.23051257  0.49658633  0.89697356     0.13500
C1441       C  0.22589784  0.53700261  0.92870747     0.02900
N1442       N  0.19259665  0.60579244  0.91998645    -0.80800
H1443       H  0.17798594  0.61458525  0.88174410     0.18400
C1444       C  0.25258633  0.55712400  0.93741115    -0.25600
C1445       C  0.26950830  0.54511944  0.95437039     0.36400
C1446       C  0.25607295  0.00397158  0.96281065    -0.19700
C1447       C  0.22732793  0.98685893  0.95437112    -0.24900
C1448       C  0.21136448  0.00069454  0.93756561     0.27800
H1449       H  0.26154247  0.58147958  0.93043778     0.13500
N1450       N  0.29760850  0.56629723  0.96205523    -0.82200
H1451       H  0.21801159  0.96199868  0.96063207     0.18400
N1452       N  0.18206458  0.98258886  0.92899355    -0.80800
H1453       H  0.28708000  0.59080850  0.96637859     0.34000
H1454       H  0.30837505  0.55474493  0.97454471     0.38500
H1455       H  0.17555547  0.95982398  0.93708921     0.34000
H1456       H  0.16061107  0.99980729  0.92977895     0.30700
H1457       H  0.18146733  0.62920612  0.91442468     0.34000
H1458       H  0.18155985  0.09620113  0.93000061     0.30700
H1459       H  0.22610723  0.48131905  0.86480089     0.38500
H1460       H  0.23397319  0.51576905  0.84974365     0.34000
C1461       C  0.44024593  0.81900214  0.87128733    -0.19700
C1462       C  0.43974358  0.79092115  0.88502895     0.36500
C1463       C  0.43076174  0.79802939  0.90453441    -0.25700
C1464       C  0.42159323  0.83271275  0.91033694     0.02900
C1465       C  0.42329846  0.86103557  0.89678569     0.27700
C1466       C  0.43294916  0.85394203  0.87747392    -0.24800
N1467       N  0.44796172  0.75521972  0.87918550    -0.82200
H1468       H  0.42980778  0.77632049  0.91501517     0.13500
C1469       C  0.40873835  0.83971499  0.93031137     0.02900
N1470       N  0.41424661  0.89676678  0.90261517    -0.80800
H1471       H  0.43300068  0.87558385  0.86694117     0.18400
C1472       C  0.42902260  0.86183941  0.94229637    -0.25600
C1473       C  0.41504236  0.87738213  0.95911995     0.36400
C1474       C  0.38019749  0.86947856  0.96444477    -0.19700
C1475       C  0.36080338  0.84519962  0.95334336    -0.24900
C1476       C  0.37429298  0.83068031  0.93611737     0.27800
H1477       H  0.45516569  0.86923339  0.93772383     0.13500
N1478       N  0.43609511  0.90278825  0.96953595    -0.82200
H1479       H  0.33404012  0.83933682  0.95743254     0.18400
N1480       N  0.35154398  0.80874990  0.92450976    -0.80800
H1481       H  0.45758841  0.88904876  0.97520525     0.34000
H1482       H  0.42285143  0.91370463  0.98141891     0.38500
H1483       H  0.33057230  0.82465742  0.92002177     0.34000
H1484       H  0.36364540  0.79966048  0.91183887     0.30700
H1485       H  0.41716536  0.91458336  0.89095293     0.34000
H1486       H  0.38774568  0.89686762  0.90632435     0.30700
H1487       H  0.46896467  0.74629555  0.88762789     0.38500
H1488       H  0.42638091  0.73918758  0.88244637     0.34000
C1489       C  0.16542305  0.59074063  0.66250607    -0.19700
C1490       C  0.19228084  0.58162528  0.64929762     0.36500
C1491       C  0.18725448  0.58727818  0.62923858    -0.25700
C1492       C  0.15596637  0.60181467  0.62229987     0.02900
C1493       C  0.12890805  0.61048279  0.63545794     0.27700
C1494       C  0.13374666  0.60436277  0.65548877    -0.24800
N1495       N  0.22457450  0.56694466  0.65637228    -0.82200
H1496       H  0.20791526  0.58092076  0.61899438     0.13500
C1497       C  0.15257282  0.61069860  0.60142297     0.02900
N1498       N  0.09708377  0.62633053  0.62842820    -0.80800
H1499       H  0.11328566  0.61135220  0.66573669     0.18400
C1500       C  0.13003759  0.59054686  0.58972914    -0.25600
C1501       C  0.12075602  0.60237079  0.57105631     0.36400
C1502       C  0.13402043  0.63539422  0.56419594    -0.19700
C1503       C  0.15918139  0.65367101  0.57515866    -0.24900
C1504       C  0.16858762  0.64161598  0.59381967     0.27800
H1505       H  0.11824295  0.56643436  0.59553760     0.13500
N1506       N  0.09646776  0.58131175  0.55998406    -0.82200
H1507       H  0.16919982  0.67895391  0.56981958     0.18400
N1508       N  0.19272701  0.66167610  0.60553032    -0.80800
H1509       H  0.07248456  0.58185712  0.56728532     0.34000
H1510       H  0.09233431  0.59195845  0.54609610     0.38500
H1511       H  0.20229229  0.68363709  0.59772729     0.34000
H1512       H  0.17895138  0.67195393  0.61744646     0.30700
H1513       H  0.07981185  0.63098701  0.63997776     0.34000
H1514       H  0.10334038  0.65136078  0.62258403     0.30700
H1515       H  0.24924366  0.06791191  0.64566571     0.38500
H1516       H  0.22689122  0.04381106  0.66214354     0.34000
C1517       C  0.00621511  0.76654185  0.56538879    -0.19700
C1518       C  0.02214586  0.79439238  0.57603810     0.36500
C1519       C  0.50747855  0.80737999  0.59327645    -0.25700
C1520       C  0.48094749  0.78679089  0.60189141     0.02900
C1521       C  0.46561405  0.75872069  0.59123161     0.27700
C1522       C  0.47892321  0.75022625  0.57269805    -0.24800
N1523       N  0.05371976  0.81165681  0.56962678    -0.82200
H1524       H  0.51892731  0.82929660  0.60135625     0.13500
C1525       C  0.47281643  0.79204326  0.62285896     0.02900
N1526       N  0.43825913  0.73749910  0.59977712    -0.80800
H1527       H  0.46879997  0.72722267  0.56497752     0.18400
C1528       C  0.43904915  0.80192541  0.62872611    -0.25600
C1529       C  0.43104499  0.80704100  0.64859264     0.36400
C1530       C  0.45728364  0.80169385  0.66276923    -0.19700
C1531       C  0.49093187  0.79161225  0.65684056    -0.24900
C1532       C  0.49891180  0.78646053  0.63706456     0.27800
H1533       H  0.41911980  0.80615137  0.61775199     0.13500
N1534       N  0.39670823  0.81839074  0.65439387    -0.82200
H1535       H  0.51100273  0.78750873  0.66775329     0.18400
N1536       N  0.02811550  0.76704712  0.63129436    -0.80800
H1537       H  0.38050447  0.82109482  0.64221202     0.34000
H1538       H  0.39903927  0.84382891  0.66052382     0.38500
H1539       H  0.04348028  0.76170994  0.64355899     0.34000
H1540       H  0.02327235  0.74245163  0.62462186     0.30700
H1541       H  0.42992990  0.71785057  0.59001694     0.34000
H1542       H  0.44879144  0.72404174  0.61179424     0.30700
H1543       H  0.06176045  0.80233324  0.55600380     0.38500
H1544       H  0.04808242  0.83877666  0.56774187     0.34000
C1545       C  0.13703674  0.74425989  0.97011227    -0.19700
C1546       C  0.11744113  0.77232835  0.96193124     0.36500
C1547       C  0.12549114  0.78487350  0.94318769    -0.25700
C1548       C  0.15240362  0.76921233  0.93224805     0.02900
C1549       C  0.17364341  0.74269704  0.94093881     0.27700
C1550       C  0.16618267  0.73105367  0.96003598    -0.24800
N1551       N  0.08813126  0.78678006  0.97225551    -0.82200
H1552       H  0.10953074  0.80570375  0.93675473     0.13500
C1553       C  0.15636707  0.77893584  0.91133619     0.02900
N1554       N  0.20135464  0.72630579  0.92996964    -0.80800
H1555       H  0.18124965  0.70951625  0.96644363     0.18400
C1556       C  0.18826204  0.79263291  0.90459841    -0.25600
C1557       C  0.19328159  0.80048737  0.88476810     0.36400
C1558       C  0.16603671  0.79462031  0.87135014    -0.19700
C1559       C  0.13375398  0.78191515  0.87813767    -0.24900
C1560       C  0.12870758  0.77367543  0.89799282     0.27800
H1561       H  0.20940907  0.79716437  0.91478884     0.13500
N1562       N  0.22594219  0.81496141  0.87831037    -0.82200
H1563       H  0.11279320  0.77748427  0.86781759     0.18400
N1564       N  0.09590571  0.75930989  0.90460299    -0.80800
H1565       H  0.23038358  0.83871834  0.88590341     0.34000
H1566       H  0.24566521  0.79690789  0.88207737     0.38500
H1567       H  0.07832163  0.75720018  0.89300602     0.34000
H1568       H  0.10047606  0.73332628  0.90962489     0.30700
H1569       H  0.21433766  0.70724781  0.93846161     0.34000
H1570       H  0.18999140  0.71248560  0.91835767     0.30700
H1571       H  0.09223167  0.81420571  0.97396523     0.38500
H1572       H  0.06586669  0.78328530  0.96365825     0.34000
C1573       C  0.00701478  0.63434164  0.96732513    -0.19700
C1574       C  0.48712827  0.59768177  0.96491142     0.36500
C1575       C  0.47407804  0.59058740  0.94614301    -0.25700
C1576       C  0.47697526  0.61577355  0.93087260     0.02900
C1577       C  0.49007042  0.65022513  0.93528213     0.27700
C1578       C  0.00717462  0.66139659  0.95305487    -0.24800
N1579       N  0.48905784  0.56855022  0.97857159    -0.82200
H1580       H  0.46324842  0.56441466  0.94328131     0.13500
C1581       C  0.46768769  0.60580910  0.91030444     0.02900
N1582       N  0.00684387  0.68033060  0.91879948    -0.80800
H1583       H  0.01747089  0.68750264  0.95675555     0.18400
C1584       C  0.45011534  0.63076180  0.89855332    -0.25600
C1585       C  0.44617103  0.62568624  0.87839908     0.36400
C1586       C  0.45540492  0.59241142  0.86993655    -0.19700
C1587       C  0.47039274  0.56617028  0.88209037    -0.24900
C1588       C  0.47802928  0.57298366  0.90183176     0.27800
H1589       H  0.44080372  0.65540555  0.90495781     0.13500
N1590       N  0.43421077  0.65495095  0.86653133    -0.82200
H1591       H  0.47690270  0.54025079  0.87616751     0.18400
N1592       N  0.49696890  0.54691142  0.91305448    -0.80800
H1593       H  0.42823053  0.67719029  0.87507878     0.34000
H1594       H  0.45480500  0.66244536  0.85736254     0.38500
H1595       H  0.50224327  0.52417668  0.90472112     0.34000
H1596       H  0.02946906  0.56339388  0.91366895     0.30700
H1597       H  0.01713876  0.70358186  0.92496028     0.34000
H1598       H  0.51595715  0.66586938  0.91104815     0.30700
H1599       H  0.50175423  0.57576484  0.99140996     0.38500
H1600       H  0.46351474  0.56138925  0.98229667     0.34000
C1601       C  0.36343870  0.01091620  0.57054131    -0.19700
C1602       C  0.34902617  0.53244909  0.57716156     0.36500
C1603       C  0.36551004  0.54526396  0.59405889    -0.25700
C1604       C  0.39333686  0.52661451  0.60272514     0.02900
C1605       C  0.40634704  0.49563392  0.59346089     0.27700
C1606       C  0.39522012  0.99669863  0.57708492    -0.24800
N1607       N  0.32006492  0.55239977  0.56942752    -0.82200
H1608       H  0.35529457  0.56903969  0.60102057     0.13500
C1609       C  0.40568677  0.53708603  0.62258752     0.02900
N1610       N  0.43581231  0.47698593  0.60154288    -0.80800
H1611       H  0.40613498  0.97366523  0.56971373     0.18400
C1612       C  0.40451080  0.51142979  0.63754676    -0.25600
C1613       C  0.41383050  0.51989805  0.65678863     0.36400
C1614       C  0.42466759  0.55496158  0.66134814    -0.19700
C1615       C  0.42571525  0.58085826  0.64647376    -0.24900
C1616       C  0.41663415  0.57219651  0.62707831     0.27800
H1617       H  0.40800961  0.99429409  0.63331125     0.13500
N1618       N  0.41139799  0.49319478  0.67185999    -0.82200
H1619       H  0.43385851  0.60779466  0.65000335     0.18400
N1620       N  0.41860762  0.59878902  0.61195532    -0.80800
H1621       H  0.42126984  0.97516823  0.66389260     0.34000
H1622       H  0.39197756  0.50129884  0.68163585     0.38500
H1623       H  0.42705303  0.62318719  0.61765252     0.34000
H1624       H  0.43768036  0.59055380  0.60200145     0.30700
H1625       H  0.44191244  0.45454454  0.59314702     0.34000
H1626       H  0.45733742  0.49410058  0.60070274     0.30700
H1627       H  0.30894103  0.04754139  0.56038977     0.38500
H1628       H  0.29989439  0.55143836  0.57971673     0.34000
C1629       C  0.17784851  0.81715962  0.66379770    -0.19700
C1630       C  0.18411111  0.79003479  0.64992009     0.36500
C1631       C  0.19186120  0.79963092  0.63049141    -0.25700
C1632       C  0.19317680  0.83568550  0.62478342     0.02900
C1633       C  0.18524472  0.86257467  0.63841294     0.27700
C1634       C  0.17755349  0.85303369  0.65767599    -0.24800
N1635       N  0.18314682  0.75308757  0.65565463    -0.82200
H1636       H  0.19793877  0.77909911  0.61989659     0.13500
C1637       C  0.20710941  0.84579897  0.60538462     0.02900
N1638       N  0.18678774  0.89964833  0.63286511    -0.80800
H1639       H  0.17335782  0.87406847  0.66824855     0.18400
C1640       C  0.18660238  0.86669490  0.59277430    -0.25600
C1641       C  0.20139213  0.88310504  0.57624543     0.36400
C1642       C  0.23710531  0.87778831  0.57218982    -0.19700
C1643       C  0.25707871  0.85538205  0.58417269    -0.24900
C1644       C  0.24256883  0.83965978  0.60090733     0.27800
H1645       H  0.15948533  0.87164055  0.59643131     0.13500
N1646       N  0.18092111  0.90660072  0.56420908    -0.82200
H1647       H  0.28452122  0.85153875  0.58089463     0.18400
N1648       N  0.26409801  0.81899943  0.61389627    -0.80800
H1649       H  0.15544286  0.90857330  0.56961403     0.34000
H1650       H  0.17896662  0.89502679  0.55039748     0.38500
H1651       H  0.28952778  0.81696140  0.60842929     0.34000
H1652       H  0.26590022  0.83294012  0.62705934     0.30700
H1653       H  0.17990685  0.91607031  0.64457554     0.34000
H1654       H  0.21275389  0.90564631  0.62942838     0.30700
H1655       H  0.15763142  0.74731128  0.66010110     0.38500
H1656       H  0.18848233  0.73658937  0.64372456     0.34000
C1657       C  0.24786591  0.99655826  0.06512022    -0.19700
C1658       C  0.22831031  0.97358141  0.07742496     0.36500
C1659       C  0.21697609  0.98609807  0.09553229    -0.25700
C1660       C  0.23028749  0.53077974  0.10226567     0.02900
C1661       C  0.25519041  0.55218639  0.09258903     0.27700
C1662       C  0.26667498  0.54225984  0.07391329    -0.24800
N1663       N  0.22113668  0.93699894  0.07245438    -0.82200
H1664       H  0.20379419  0.96789257  0.10542617     0.13500
C1665       C  0.22397181  0.53457795  0.12341014     0.02900
N1666       N  0.27019578  0.58249396  0.10230120    -0.80800
H1667       H  0.28754951  0.55709742  0.06692039     0.18400
C1668       C  0.25180919  0.52791801  0.13617627    -0.25600
C1669       C  0.24672480  0.52755413  0.15643137     0.36400
C1670       C  0.21317080  0.53463934  0.16404281    -0.19700
C1671       C  0.18525388  0.54114886  0.15123327    -0.24900
C1672       C  0.19034170  0.54111737  0.13092413     0.27800
H1673       H  0.27741079  0.52194107  0.13024371     0.13500
N1674       N  0.27528644  0.51936386  0.16929005    -0.82200
H1675       H  0.15957099  0.54682180  0.15712362     0.18400
N1676       N  0.16165113  0.54765672  0.11789496    -0.80800
H1677       H  0.29820103  0.51486789  0.16134254     0.34000
H1678       H  0.26932848  0.49538666  0.17641119     0.38500
H1679       H  0.13860129  0.55185837  0.12576272     0.34000
H1680       H  0.16691371  0.57140114  0.11038006     0.30700
H1681       H  0.28865716  0.59498836  0.09333426     0.34000
H1682       H  0.25018017  0.60101503  0.10460266     0.30700
H1683       H  0.22910884  0.93099777  0.05826463     0.38500
H1684       H  0.23554578  0.92075097  0.08191545     0.34000
C1685       C  0.18122555  0.55726018  0.37269165    -0.19700
C1686       C  0.20645820  0.55505556  0.38765589     0.36500
C1687       C  0.19781929  0.56685574  0.40658223    -0.25700
C1688       C  0.16439819  0.58028290  0.41065511     0.02900
C1689       C  0.13881105  0.58097138  0.39593919     0.27700
C1690       C  0.14749078  0.56952397  0.37710277    -0.24800
N1691       N  0.24067224  0.54121698  0.38349429    -0.82200
H1692       H  0.21728581  0.56636701  0.41803840     0.13500
C1693       C  0.15667196  0.59688472  0.42969275     0.02900
N1694       N  0.10450062  0.59471406  0.40006768    -0.80800
H1695       H  0.12818839  0.57141677  0.36559678     0.18400
C1696       C  0.15972771  0.63406124  0.43119506    -0.25600
C1697       C  0.14610393  0.65220548  0.44732532     0.36400
C1698       C  0.12901804  0.63296892  0.46220116    -0.19700
C1699       C  0.12757452  0.59550284  0.46122656    -0.24900
C1700       C  0.14137091  0.57718325  0.44503496     0.27800
H1701       H  0.17134488  0.64921161  0.41935035     0.13500
N1702       N  0.14857731  0.69034620  0.44831731    -0.82200
H1703       H  0.11459789  0.58075646  0.47276947     0.18400
N1704       N  0.13927494  0.53890305  0.44388371    -0.80800
H1705       H  0.13632083  0.70105149  0.43599416     0.34000
H1706       H  0.17499402  0.69731562  0.44773507     0.38500
H1707       H  0.12758436  0.52847085  0.45646347     0.34000
H1708       H  0.12285098  0.53245343  0.43224845     0.30700
H1709       H  0.08893389  0.59414993  0.38755281     0.34000
H1710       H  0.09271170  0.57755686  0.41017149     0.30700
H1711       H  0.23776787  0.51447232  0.37943926     0.38500
H1712       H  0.25608598  0.54132120  0.39607610     0.34000
C1713       C  0.41330985  0.52316192  0.36886291    -0.19700
C1714       C  0.43868861  0.52887095  0.38345391     0.36500
C1715       C  0.42991083  0.52290930  0.40312704    -0.25700
C1716       C  0.39620122  0.51191971  0.40840528     0.02900
C1717       C  0.37082071  0.50627932  0.39384052     0.27700
C1718       C  0.37959750  0.51215981  0.37420012    -0.24800
N1719       N  0.47296832  0.54136628  0.37825301    -0.82200
H1720       H  0.44922035  0.52721053  0.41442180     0.13500
C1721       C  0.38769191  0.50538967  0.42917662     0.02900
N1722       N  0.34444951  0.00802227  0.40216033    -0.80800
H1723       H  0.36016952  0.50792522  0.36295731     0.18400
C1724       C  0.36245151  0.52674851  0.43830546    -0.25600
C1725       C  0.34944049  0.51793758  0.45679632     0.36400
C1726       C  0.37333272  0.99472770  0.46842157    -0.19700
C1727       C  0.39960926  0.97432270  0.45948443    -0.24900
C1728       C  0.40204469  0.47597978  0.43923100     0.27800
H1729       H  0.35159056  0.54948446  0.43058894     0.13500
N1730       N  0.32197249  0.53962521  0.46483263    -0.82200
H1731       H  0.40830418  0.94989899  0.46648077     0.18400
N1732       N  0.42802556  0.45400353  0.43000986    -0.80800
H1733       H  0.29996185  0.53650266  0.45598606     0.34000
H1734       H  0.32700295  0.03963522  0.48131104     0.38500
H1735       H  0.44404568  0.93903555  0.44017272     0.34000
H1736       H  0.41640579  0.44199375  0.41789121     0.30700
H1737       H  0.32767408  0.00751153  0.39013868     0.33600
H1738       H  0.34531204  0.98196975  0.40768270     0.30700
H1739       H  0.47022465  0.56688853  0.37220886     0.38500
H1740       H  0.48848010  0.54421681  0.39069486     0.34000
C1741       C  0.12978085  0.75270456  0.07212144    -0.19700
C1742       C  0.16366547  0.74094623  0.07686230     0.36500
C1743       C  0.17984952  0.75419021  0.09369492    -0.25700
C1744       C  0.16244273  0.77842257  0.10588670     0.02900
C1745       C  0.12911621  0.79131601  0.10064451     0.27700
C1746       C  0.11319603  0.77850869  0.08362113    -0.24800
N1747       N  0.18040560  0.71392422  0.06527036    -0.82200
H1748       H  0.20530648  0.74419498  0.09793031     0.13500
C1749       C  0.17671196  0.78564346  0.12548846     0.02900
N1750       N  0.11087835  0.81582935  0.11316571    -0.80800
H1751       H  0.08704174  0.78713828  0.07984334     0.18400
C1752       C  0.18540409  0.82065316  0.13092739    -0.25600
C1753       C  0.19477551  0.82857947  0.15028833     0.36400
C1754       C  0.19507826  0.80094193  0.16430580    -0.19700
C1755       C  0.18797861  0.76572692  0.15854142    -0.24900
C1756       C  0.17860733  0.75779941  0.13931898     0.27800
H1757       H  0.18407508  0.84183629  0.12014770     0.13500
N1758       N  0.20359647  0.86444584  0.15583440    -0.82200
H1759       H  0.18801608  0.74452456  0.16934107     0.18400
N1760       N  0.16961279  0.72181662  0.13395096    -0.80800
H1761       H  0.20207461  0.88158101  0.14379103     0.34000
H1762       H  0.22970592  0.86436568  0.16028306     0.38500
H1763       H  0.17261383  0.70447539  0.14581548     0.34000
H1764       H  0.14309695  0.72150522  0.13032451     0.30700
H1765       H  0.08671273  0.82273080  0.10715234     0.34000
H1766       H  0.10556831  0.80255194  0.12628105     0.30700
H1767       H  0.18542024  0.72491643  0.05151679     0.38500
H1768       H  0.20466400  0.70714984  0.07120630     0.34000
C1769       C  0.99160132  0.63226978  0.07064709    -0.19700
C1770       C  0.47888306  0.65349643  0.08859548     0.36500
C1771       C  0.46775424  0.63553225  0.10537278    -0.25700
C1772       C  0.46769338  0.59816798  0.10625136     0.02900
C1773       C  0.98318408  0.57891689  0.09077739     0.27700
C1774       C  0.99591198  0.59544481  0.07373779    -0.24800
N1775       N  0.47815229  0.69191014  0.08861969    -0.82200
H1776       H  0.46011655  0.65085961  0.11808622     0.13500
C1777       C  0.46153438  0.58099127  0.12530564     0.02900
N1778       N  0.98888727  0.54143949  0.09415859    -0.80800
H1779       H  0.01117405  0.58005975  0.06341480     0.18400
C1780       C  0.42853662  0.56703764  0.12982932    -0.25600
C1781       C  0.42102365  0.55479884  0.14880224     0.36400
C1782       C  0.44700070  0.55697570  0.16330291    -0.19700
C1783       C  0.48051168  0.56927766  0.15841086    -0.24900
C1784       C  0.48808139  0.58120825  0.13949513     0.27800
H1785       H  0.40845183  0.56667742  0.11871255     0.13500
N1786       N  0.38714941  0.54066988  0.15351765    -0.82200
H1787       H  0.50043867  0.57083001  0.16959471     0.18400
N1788       N  0.01794006  0.60536066  0.13456278    -0.80800
H1789       H  0.39045496  0.51387208  0.15744837     0.34000
H1790       H  0.37104432  0.54090867  0.14121057     0.38500
H1791       H  0.03395084  0.60621226  0.14689726     0.34000
H1792       H  0.03095124  0.58959846  0.12430148     0.30700
H1793       H  0.00183259  0.52994998  0.08228681     0.34000
H1794       H  0.00554819  0.53879116  0.10613825     0.30700
H1795       H  0.48467626  0.70250150  0.07499259     0.38500
H1796       H  0.49682056  0.70077938  0.09861671     0.34000
C1797       C  0.24503412  0.86494149  0.47048027    -0.19700
C1798       C  0.21422346  0.87795222  0.46181806     0.36500
C1799       C  0.20380160  0.86446744  0.44362020    -0.25700
C1800       C  0.22321953  0.83760157  0.43429540     0.02900
C1801       C  0.25187670  0.82198148  0.44410088     0.27700
C1802       C  0.26281042  0.83618487  0.46202073    -0.24800
N1803       N  0.19529079  0.90662349  0.47088271    -0.82200
H1804       H  0.18179393  0.87648732  0.43616985     0.13500
C1805       C  0.21622194  0.82926754  0.41345863     0.02900
N1806       N  0.27059109  0.79279517  0.43536761    -0.80800
H1807       H  0.28636566  0.82620954  0.46888389     0.18400
C1808       C  0.24378121  0.83260234  0.40003086    -0.25600
C1809       C  0.23871762  0.82644442  0.38007165     0.36400
C1810       C  0.20534971  0.81650807  0.37332193    -0.19700
C1811       C  0.17752789  0.81373410  0.38663959    -0.24900
C1812       C  0.18261855  0.82002448  0.40668409     0.27800
H1813       H  0.26929922  0.84088744  0.40512260     0.13500
N1814       N  0.26713047  0.83109761  0.36654887    -0.82200
H1815       H  0.15185806  0.80635522  0.38137586     0.18400
N1816       N  0.15392454  0.81703864  0.42014301    -0.80800
H1817       H  0.28996064  0.83840443  0.37387362     0.34000
H1818       H  0.26073931  0.85241411  0.35733253     0.38500
H1819       H  0.13094993  0.81030141  0.41279370     0.34000
H1820       H  0.15942742  0.79592221  0.42966668     0.30700
H1821       H  0.29115191  0.78460229  0.44435059     0.34000
H1822       H  0.25336600  0.77120471  0.43441067     0.30700
H1823       H  0.18560250  0.89703565  0.48417243     0.38500
H1824       H  0.17358956  0.91366625  0.46246840     0.34000
C1825       C  0.41607519  0.82999263  0.16518860    -0.19700
C1826       C  0.44176736  0.82146963  0.15114804     0.36500
C1827       C  0.43495076  0.82799688  0.13132583    -0.25700
C1828       C  0.40313358  0.84293014  0.12537350     0.02900
C1829       C  0.37743192  0.85137316  0.13943240     0.27700
C1830       C  0.38408223  0.84447534  0.15921410    -0.24800
N1831       N  0.47401934  0.80492564  0.15697331    -0.82200
H1832       H  0.45439825  0.82125645  0.12043565     0.13500
C1833       C  0.39688374  0.84996316  0.10440477     0.02900
N1834       N  0.34483435  0.86714373  0.13354437    -0.80800
H1835       H  0.36441303  0.85071541  0.17007498     0.18400
C1836       C  0.36801720  0.83405159  0.09536939    -0.25600
C1837       C  0.35751850  0.84445958  0.07668691     0.36400
C1838       C  0.37689624  0.87090764  0.06664271    -0.19700
C1839       C  0.40778506  0.88420538  0.07486290    -0.24900
C1840       C  0.41772667  0.87440631  0.09386045     0.27800
H1841       H  0.35244979  0.81468066  0.10332028     0.13500
N1842       N  0.32627092  0.82887772  0.06879034    -0.82200
H1843       H  0.42227169  0.90473813  0.06715524     0.18400
N1844       N  0.44755571  0.89076447  0.10289623    -0.80800
H1845       H  0.30526323  0.83741722  0.07735641     0.34000
H1846       H  0.32148393  0.83754464  0.05456220     0.38500
H1847       H  0.45996852  0.90818089  0.09315725     0.34000
H1848       H  0.43849072  0.90638995  0.11447246     0.30700
H1849       H  0.32872054  0.87146848  0.14564215     0.34000
H1850       H  0.35032543  0.89227093  0.12758747     0.30700
H1851       H  0.48853712  0.82384660  0.16465283     0.38500
H1852       H  0.48897552  0.79826073  0.14473333     0.34000
C1853       C  0.43299638  0.80270165  0.37148993    -0.19700
C1854       C  0.43540511  0.76799321  0.37968338     0.36500
C1855       C  0.44192222  0.76416522  0.39969414    -0.25700
C1856       C  0.44732205  0.79404257  0.41155780     0.02900
C1857       C  0.44336562  0.82860272  0.40369562     0.27700
C1858       C  0.43606834  0.83261034  0.38371891    -0.24800
N1859       N  0.43353140  0.73676733  0.36753094    -0.82200
H1860       H  0.44556473  0.73767111  0.40578527     0.13500
C1861       C  0.46329032  0.78821458  0.43093126     0.02900
N1862       N  0.44801213  0.85936974  0.41592018    -0.80800
H1863       H  0.43389113  0.85917253  0.37751856     0.18400
C1864       C  0.99827553  0.79697064  0.43364808    -0.25600
C1865       C  0.01705798  0.78529903  0.44989224     0.36400
C1866       C  0.00031639  0.76318873  0.46381060    -0.19700
C1867       C  0.46676971  0.75479283  0.46126148    -0.24900
C1868       C  0.44726174  0.76625894  0.44507485     0.27800
H1869       H  0.01162970  0.81235503  0.42247901     0.13500
N1870       N  0.05316966  0.79548075  0.45143579    -0.82200
H1871       H  0.45517401  0.73665283  0.47178104     0.18400
N1872       N  0.41178051  0.75469327  0.44250197    -0.80800
H1873       H  0.06675507  0.78305814  0.44007472     0.34000
H1874       H  0.06432337  0.78671905  0.46447866     0.38500
H1875       H  0.40400259  0.73838933  0.45413351     0.34000
H1876       H  0.39590637  0.77740911  0.44293395     0.30700
H1877       H  0.44462036  0.88286322  0.40785839     0.34000
H1878       H  0.42825602  0.85892049  0.42646607     0.30700
H1879       H  0.45521216  0.73711605  0.35823874     0.38500
H1880       H  0.43549303  0.71345482  0.37589875     0.34000
C1881       C  0.93155320  0.30996745  0.35007973     0.03300
C1882       C  0.95446078  0.33303791  0.34026635    -0.12900
C1883       C  0.95625143  0.33293404  0.31985247     0.00800
C1884       C  0.93436883  0.31014215  0.30923363    -0.11400
C1885       C  0.91029146  0.28798450  0.31888185     0.03300
C1886       C  0.90824501  0.28887360  0.33929503    -0.10800
H1887       H  0.97304557  0.34864426  0.34856713     0.08900
H1888       H  0.93658965  0.30923150  0.29347932     0.06400
H1889       H  0.89073568  0.27082229  0.34689565     0.06200
C1890       C  0.92533427  0.31991703  0.18539200     0.03300
C1891       C  0.95030903  0.33922871  0.19598310    -0.12900
C1892       C  0.95587509  0.33181964  0.21583803     0.00800
C1893       C  0.93573651  0.30544991  0.22508193    -0.11400
C1894       C  0.91014518  0.28666036  0.21474570     0.03300
C1895       C  0.90493498  0.29411944  0.19490644    -0.10800
H1896       H  0.96566047  0.35957480  0.18867057     0.08900
H1897       H  0.93971747  0.29964727  0.24040599     0.06400
H1898       H  0.88568896  0.27931730  0.18665220     0.06200
C1899       C  0.70080367  0.31465932  0.35060427     0.03300
C1900       C  0.67598033  0.33411538  0.34011527    -0.12900
C1901       C  0.67251879  0.32952449  0.31993149     0.00800
C1902       C  0.69381695  0.30463469  0.31030520    -0.11400
C1903       C  0.71929066  0.28535039  0.32069807     0.03300
C1904       C  0.72277754  0.29068042  0.34084584    -0.10800
H1905       H  0.65927547  0.35270998  0.34782445     0.08900
H1906       H  0.69095274  0.30072213  0.29472407     0.06400
H1907       H  0.74180487  0.27551599  0.34911145     0.06200
C1908       C  0.94087281  0.05187667  0.18304912     0.03300
C1909       C  0.91659445  0.07262042  0.19340778    -0.12900
C1910       C  0.91598426  0.07210271  0.21389035     0.00800
C1911       C  0.93965526  0.05014562  0.22403424    -0.11400
C1912       C  0.96272134  0.02769852  0.21384428     0.03300
C1913       C  0.96307607  0.02863404  0.19335189    -0.10800
H1914       H  0.90008429  0.09124922  0.18556084     0.08900
H1915       H  0.93987290  0.05025492  0.23985133     0.06400
H1916       H  0.98203599  0.01283952  0.18539208     0.06200
C1917       C  0.98364148  0.35350538  0.30981674     0.42600
N1918       N  0.52770368  0.36365859  0.29058426     0.01500
C1919       C  0.62962895  0.01555439  0.28938682    -0.06400
H1920       H  0.49620454  0.03850210  0.28096496     0.07000
C1921       C  0.50099993  0.46932080  0.21843236    -0.06700
Co1922     Co  0.56649570  0.42905547  0.30284362     0.74200
N1923       N  0.52850072  0.49219920  0.28756014    -0.25900
Co1924     Co  0.56587155  0.49140356  0.26542850     0.74100
C1925       C  0.48441994  0.00308734  0.22453038     0.42700
N1926       N  0.52676581  0.38431300  0.23278822     0.01100
N1927       N  0.52693230  0.48896765  0.24427086     0.01200
N1928       N  0.62853508  0.47586556  0.31455153    -0.46800
H1929       H  0.49812179  0.39943816  0.32972930     0.07000
N1930       N  0.52859724  0.46862177  0.30189829     0.01500
N1931       N  0.60331433  0.48937148  0.24324913     0.01200
C1932       C  0.64387157  0.50366061  0.22304955     0.42800
N1933       N  0.52681990  0.36082389  0.24717428    -0.25400
C1934       C  0.62990564  0.38362377  0.31570783    -0.06300
N1935       N  0.50256539  0.34009531  0.29393489    -0.46500
N1936       N  0.62756543  0.51372256  0.23963709    -0.46700
C1937       C  0.64632106  0.35058522  0.30921577     0.42600
N1938       N  0.60449477  0.46881258  0.30123007     0.01500
N1939       N  0.60313925  0.36075303  0.24661162    -0.25400
N1940       N  0.52857720  0.38924207  0.30378985    -0.25900
N1941       N  0.60298219  0.38412075  0.23214823     0.01100
H1942       H  0.63585841  0.31554673  0.25326821     0.07000
H1943       H  0.63224050  0.45489399  0.20360893     0.07000
N1944       N  0.60449699  0.49215113  0.28675828    -0.25900
N1945       N  0.52702289  0.46342767  0.23103813    -0.25500
N1946       N  0.60420860  0.36344105  0.28991953     0.01500
C1947       C  0.48575498  0.00437513  0.30844476     0.42900
C1948       C  0.49993328  0.33838009  0.24472922    -0.06800
N1949       N  0.60265225  0.46385636  0.22999818    -0.25500
H1950       H  0.49523781  0.45339986  0.20568989     0.07000
N1951       N  0.50375528  0.47449257  0.31499646    -0.46800
H1952       H  0.99445628  0.31584355  0.25398564     0.07000
C1953       C  0.64630277  0.34986516  0.22592893     0.42700
C1954       C  0.50330360  0.38332053  0.31697413    -0.06300
Co1955     Co  0.56545072  0.36131328  0.26856030     0.73800
N1956       N  0.50108734  0.37897892  0.22020177    -0.46500
C1957       C  0.64603064  0.50490823  0.30812347     0.43000
N1958       N  0.62898657  0.33942557  0.29319915    -0.46500
Co1959     Co  0.56491619  0.42380246  0.23105118     0.73900
C1960       C  0.62730349  0.47061935  0.21653828    -0.06800
C1961       C  0.50186019  0.01568102  0.29013422    -0.06400
N1962       N  0.60421088  0.38937047  0.30292265    -0.25900
N1963       N  0.50168154  0.01358018  0.24070418    -0.46700
H1964       H  0.63495893  0.03865436  0.28035036     0.07000
C1965       C  0.62970642  0.33808774  0.24398882    -0.06800
Cl1966     Cl  0.56573942  0.42640217  0.26696998    -0.49800
C1967       C  0.98350975  0.35044510  0.22676936     0.42700
H1968       H  0.63552351  0.40000229  0.32829272     0.07000
N1969       N  0.62813491  0.37826806  0.21922114    -0.46500
C1970       C  0.69981164  0.30930799  0.18524728     0.03300
C1971       C  0.67629571  0.33177668  0.19506134    -0.12900
C1972       C  0.67466910  0.33138482  0.21550697     0.00800
C1973       C  0.69766799  0.30952866  0.22602803    -0.11400
C1974       C  0.72157916  0.28743702  0.21636628     0.03300
C1975       C  0.72294108  0.28784199  0.19595702    -0.10800
H1976       H  0.65727988  0.34697744  0.18678534     0.08900
H1977       H  0.69617399  0.30885963  0.24180576     0.06400
H1978       H  0.73997596  0.26941790  0.18832284     0.06200
C1979       C  0.92293034  0.03379413  0.34851301     0.03300
C1980       C  0.90266971  0.05827866  0.33793759    -0.12900
C1981       C  0.90996926  0.06526747  0.31829844     0.00800
C1982       C  0.93694951  0.04661345  0.30900760    -0.11400
C1983       C  0.45790354  0.02309138  0.31912738     0.03300
C1984       C  0.95027176  0.01540342  0.33908811    -0.10800
H1985       H  0.88209450  0.07292972  0.34528711     0.08900
H1986       H  0.94213463  0.05150811  0.29372507     0.06400
H1987       H  0.46859621  0.99862199  0.34706592     0.06200
C1988       C  0.68933011  0.04859635  0.35074183     0.03300
C1989       C  0.71418387  0.07030169  0.34132823    -0.12900
C1990       C  0.71694449  0.07029588  0.32090379     0.00800
C1991       C  0.69492207  0.04815820  0.30992698    -0.11400
C1992       C  0.67099272  0.02538567  0.31919777     0.03300
C1993       C  0.66867906  0.02535283  0.33959683    -0.10800
H1994       H  0.72934318  0.08919898  0.34975144     0.08900
H1995       H  0.69624002  0.04889100  0.29412950     0.06400
H1996       H  0.64915940  0.00896574  0.34678645     0.06200
C1997       C  0.70503065  0.04089487  0.18508910     0.03300
C1998       C  0.72482028  0.06489227  0.19612030    -0.12900
C1999       C  0.71851385  0.06897698  0.21609679     0.00800
C2000       C  0.69227792  0.04849393  0.22509773    -0.11400
C2001       C  0.67274321  0.02373609  0.21428542     0.03300
C2002       C  0.67924972  0.02007831  0.19422673    -0.10800
H2003       H  0.74428424  0.08134332  0.18892707     0.08900
H2004       H  0.68719310  0.05154982  0.24055337     0.06400
H2005       H  0.66388828  0.00168010  0.18559677     0.06200
C2006       C  0.74104452  0.25861642  0.31066162     0.42600
N2007       N  0.75482027  0.21622593  0.29121954     0.01500
C2008       C  0.90253963  0.11152498  0.28995763    -0.06400
H2009       H  0.92377780  0.24981189  0.28047199     0.07000
C2010       C  0.85791473  0.24124246  0.21797738    -0.06700
Co2011     Co  0.81852781  0.17695579  0.30385161     0.74200
N2012       N  0.87977737  0.21631222  0.28753555    -0.25900
Co2013     Co  0.87934465  0.17727043  0.26605052     0.74100
C2014       C  0.88992288  0.25847253  0.22461510     0.42700
N2015       N  0.77472973  0.21595739  0.23348962     0.01100
N2016       N  0.87705309  0.21599102  0.24429351     0.01200
N2017       N  0.86318187  0.11172105  0.31466296    -0.46800
H2018       H  0.78853611  0.24711090  0.33044083     0.07000
N2019       N  0.85727834  0.21609061  0.30214211     0.01500
N2020       N  0.87765528  0.13808006  0.24454559     0.01200
C2021       C  0.89277241  0.09670811  0.22465270     0.42800
N2022       N  0.75225478  0.21634640  0.24809573    -0.25400
C2023       C  0.77201230  0.11267962  0.31778255    -0.06300
N2024       N  0.73113434  0.24128618  0.29437780    -0.46500
N2025       N  0.90220553  0.11398340  0.24106458    -0.46700
C2026       C  0.73973780  0.09615626  0.31081252     0.42600
N2027       N  0.85724522  0.13795376  0.30208700     0.01500
N2028       N  0.75126098  0.13867150  0.24812867    -0.25400
N2029       N  0.77964604  0.21580089  0.30452952    -0.25900
N2030       N  0.77415118  0.13802850  0.23372371     0.01100
H2031       H  0.70504519  0.10795004  0.25445532     0.07000
H2032       H  0.84517128  0.10761646  0.20490410     0.07000
N2033       N  0.88008341  0.13848383  0.28765126    -0.25900
N2034       N  0.85203873  0.21535795  0.23110105    -0.25500
N2035       N  0.75440553  0.13827312  0.29123846     0.01500
C2036       C  0.89070646  0.26077146  0.30790217     0.42900
C2037       C  0.73023897  0.24369719  0.24564662    -0.06800
N2038       N  0.85264984  0.13800418  0.23131054    -0.25500
H2039       H  0.84213800  0.24664006  0.20523406     0.07000
N2040       N  0.86322001  0.24197811  0.31486951    -0.46800
H2041       H  0.70826164  0.24987437  0.25497541     0.07000
C2042       C  0.73825409  0.09581773  0.22722710     0.42700
C2043       C  0.77319018  0.24165782  0.31755332    -0.06300
Co2044     Co  0.75257692  0.17739713  0.26966699     0.73800
N2045       N  0.76881501  0.24170180  0.22060548    -0.46500
C2046       C  0.89121182  0.09372753  0.30779571     0.43000
N2047       N  0.73031410  0.11361575  0.29442387    -0.46500
Co2048     Co  0.81323753  0.17667996  0.23195709     0.73900
C2049       C  0.86001829  0.11283071  0.21800269    -0.06800
C2050       C  0.90184254  0.24367407  0.28985423    -0.06400
N2051       N  0.77917383  0.13830228  0.30460664    -0.25900
N2052       N  0.90039083  0.24132970  0.24093415    -0.46700
H2053       H  0.92457594  0.10598303  0.28056014     0.07000
C2054       C  0.72766710  0.11283990  0.24537066    -0.06800
Cl2055     Cl  0.81594256  0.17694280  0.26788438    -0.49800
C2056       C  0.74137379  0.26056487  0.22749184     0.42700
H2057       H  0.78688838  0.10711597  0.33084427     0.07000
N2058       N  0.76706145  0.11300992  0.22069631    -0.46500
N2059       N  0.79403610  0.43485502  0.54910166    -0.36500
N2060       N  0.83581375  0.47028424  0.51917052    -0.57000
N2061       N  0.80115686  0.42656874  0.48989062    -0.36500
N2062       N  0.75642499  0.39424758  0.51964382    -0.57000
C2063       C  0.80991131  0.46016258  0.56000596     0.27100
C2064       C  0.76864146  0.41990091  0.56016663     0.27100
C2065       C  0.81798958  0.45064804  0.47850972     0.27100
C2066       C  0.77619778  0.41112898  0.47878907     0.27100
C2067       C  0.85216166  0.48330619  0.53507080     0.35700
C2068       C  0.85579556  0.47901534  0.50362148     0.35700
C2069       C  0.74400470  0.37756067  0.53565829     0.35700
C2070       C  0.74711897  0.37399500  0.50428112     0.35700
C2071       C  0.79442423  0.46117114  0.57832654    -0.21800
C2072       C  0.76839858  0.43586667  0.57841339    -0.21800
C2073       C  0.80385382  0.45016080  0.45989232    -0.21700
C2074       C  0.77760011  0.42523372  0.46004907    -0.21700
C2075       C  0.88099034  0.01014293  0.52903168    -0.22800
C2076       C  0.88190856  0.00866703  0.50897265    -0.22800
C2077       C  0.72618760  0.34678903  0.53043788    -0.22800
C2078       C  0.72809938  0.34457430  0.51046948    -0.22800
C2079       C  0.83945282  0.48068966  0.55440555    -0.18200
C2080       C  0.74744201  0.39046533  0.55484445    -0.18200
C2081       C  0.75356986  0.38318000  0.48470855    -0.18200
C2082       C  0.84699038  0.47173945  0.48405209    -0.18200
H2083       H  0.80148268  0.47793353  0.59053864     0.14800
H2084       H  0.75165194  0.42948898  0.59067765     0.14800
H2085       H  0.81177337  0.46594032  0.44739127     0.14800
H2086       H  0.76166158  0.41815457  0.44762981     0.14800
H2087       H  0.89997266  0.02330285  0.53822696     0.13000
H2088       H  0.90171139  0.02037867  0.49966250     0.13000
H2089       H  0.71298871  0.32807696  0.53999311     0.13000
H2090       H  0.71663007  0.32387231  0.50153735     0.13000
H2091       H  0.80164657  0.42656172  0.53538001     0.26300
H2092       H  0.80777629  0.41945071  0.50402655     0.26300
N2093       N  0.56802680  0.19458291  0.05020033    -0.36500
N2094       N  0.61617379  0.22226956  0.02042524    -0.57000
N2095       N  0.57605030  0.18483585  0.99193148    -0.36500
N2096       N  0.53031745  0.15348857  0.02120514    -0.57000
C2097       C  0.59472351  0.20742240  0.06101843     0.27100
C2098       C  0.55046711  0.17077476  0.06145897     0.27100
C2099       C  0.60503405  0.19339166  0.98165114     0.27100
C2100       C  0.55977770  0.15848114  0.98214538     0.27100
C2101       C  0.62531898  0.24307677  0.03554936     0.35700
C2102       C  0.62933913  0.23789769  0.00425313     0.35700
C2103       C  0.50871441  0.14919326  0.03658599     0.35700
C2104       C  0.51137238  0.14660891  0.00505851     0.35700
C2105       C  0.59393863  0.19184337  0.07941044    -0.21800
C2106       C  0.56620472  0.16854453  0.07963463    -0.21800
C2107       C  0.60738213  0.17184080  0.96525964    -0.21700
C2108       C  0.57885944  0.14964740  0.96564026    -0.21700
C2109       C  0.64512939  0.27178432  0.02907319    -0.22800
C2110       C  0.64753189  0.26857487  0.00909763    -0.22800
C2111       C  0.97239860  0.14124208  0.02968463    -0.22800
C2112       C  0.97347200  0.14124267  0.00955246    -0.22800
C2113       C  0.61841995  0.23443978  0.05515316    -0.18200
C2114       C  0.51927406  0.15285768  0.05618229    -0.18200
C2115       C  0.52557580  0.14650169  0.98606486    -0.18200
C2116       C  0.62637866  0.22326052  0.98544448    -0.18200
H2117       H  0.61140230  0.19684007  0.09149914     0.14800
H2118       H  0.55828500  0.15217395  0.09190619     0.14800
H2119       H  0.62681893  0.17265673  0.95381488     0.14800
H2120       H  0.57198683  0.13035302  0.95454990     0.14800
H2121       H  0.65688070  0.29255787  0.03783955     0.13000
H2122       H  0.66149634  0.28631781  0.99933586     0.13000
H2123       H  0.94950406  0.13694794  0.03866791     0.13000
H2124       H  0.95157304  0.13691431  0.99988208     0.13000
H2125       H  0.56095066  0.20336360  0.03636609     0.26300
H2126       H  0.56571269  0.19888314  0.00366069     0.26300
N2127       N  0.56216795  0.19180532  0.48324564    -0.36500
N2128       N  0.59853028  0.14939202  0.51281774    -0.57000
N2129       N  0.56197434  0.19016920  0.54290281    -0.36500
N2130       N  0.52218390  0.22890733  0.51354755    -0.57000
C2131       C  0.57696269  0.16600923  0.47213710     0.27100
C2132       C  0.53651699  0.20716450  0.47251404     0.27100
C2133       C  0.57894177  0.16609838  0.55417595     0.27100
C2134       C  0.53946263  0.20810029  0.55455001     0.27100
C2135       C  0.61616953  0.13797504  0.49695101     0.35700
C2136       C  0.61600142  0.13702833  0.52855360     0.35700
C2137       C  0.50994904  0.24670033  0.49786018     0.35700
C2138       C  0.51052961  0.24661617  0.52940617     0.35700
C2139       C  0.56070352  0.16526750  0.45405586    -0.21800
C2140       C  0.53534604  0.19127110  0.45426877    -0.21800
C2141       C  0.56724129  0.16907050  0.57329230    -0.21700
C2142       C  0.54258429  0.19552848  0.57354182    -0.21700
C2143       C  0.64485287  0.11784922  0.50265027    -0.22800
C2144       C  0.64457086  0.11703814  0.52269622    -0.22800
C2145       C  0.99312398  0.27485805  0.50452269    -0.22800
C2146       C  0.99350427  0.27469133  0.52455092    -0.22800
C2147       C  0.60573275  0.14407446  0.47743774    -0.18200
C2148       C  0.51497116  0.23608968  0.47833084    -0.18200
C2149       C  0.51702761  0.23644187  0.54889320    -0.18200
C2150       C  0.60596871  0.14265177  0.54813537    -0.18200
H2151       H  0.56652723  0.14779772  0.44191556     0.14800
H2152       H  0.51795353  0.19768212  0.44232572     0.14800
H2153       H  0.57583734  0.15411098  0.58593060     0.14800
H2154       H  0.52883029  0.20459236  0.58641123     0.14800
H2155       H  0.66391886  0.10491751  0.49338128     0.13000
H2156       H  0.66329175  0.10341215  0.53190129     0.13000
H2157       H  0.97891140  0.29342964  0.49537038     0.13000
H2158       H  0.97970254  0.29312807  0.53394900     0.13000
H2159       H  0.57047155  0.19988062  0.49691203     0.26300
H2160       H  0.56662641  0.19512929  0.52833152     0.26300
N2161       N  0.83096891  0.44914720  0.98479354    -0.36500
N2162       N  0.86449831  0.40481229  0.01484892    -0.57000
N2163       N  0.82329371  0.44207470  0.04411005    -0.36500
N2164       N  0.79331792  0.48960737  0.01430082    -0.57000
C2165       C  0.85367798  0.43040515  0.97368197     0.27100
C2166       C  0.81673355  0.47497944  0.97343410     0.27100
C2167       C  0.84597605  0.42397200  0.05560569     0.27100
C2168       C  0.80793388  0.46730298  0.05529432     0.27100
C2169       C  0.87518052  0.38677492  0.99889100     0.35700
C2170       C  0.87249309  0.38428147  0.03046254     0.35700
C2171       C  0.77796597  0.50372627  0.99830890     0.35700
C2172       C  0.77387174  0.49984203  0.02975261     0.35700
C2173       C  0.85398518  0.44466900  0.95494937    -0.21800
C2174       C  0.83069556  0.47265003  0.95479318    -0.21800
C2175       C  0.84467414  0.43769841  0.07438643    -0.21700
C2176       C  0.82067687  0.46489755  0.07419964    -0.21700
C2177       C  0.89062236  0.35478688  0.00442558    -0.22800
C2178       C  0.88895545  0.35324489  0.02447082    -0.22800
C2179       C  0.73810384  0.02537081  0.00444671    -0.22800
C2180       C  0.73443983  0.02216808  0.02429831    -0.22800
C2181       C  0.87227980  0.39925356  0.97944826    -0.18200
C2182       C  0.78953022  0.49875451  0.97889437    -0.18200
C2183       C  0.78107371  0.49092501  0.04934371    -0.18200
C2184       C  0.86618332  0.39393998  0.05005266    -0.18200
H2185       H  0.86884338  0.43539968  0.94250175     0.14800
H2186       H  0.82426235  0.48892791  0.94222954     0.14800
H2187       H  0.85908847  0.42876924  0.08706271     0.14800
H2188       H  0.81325616  0.48080956  0.08669485     0.14800
H2189       H  0.90195489  0.33469995  0.99501016     0.13000
H2190       H  0.89866298  0.33177591  0.03357747     0.13000
H2191       H  0.72218003  0.04191329  0.99502465     0.13000
H2192       H  0.71528812  0.03585079  0.03319191     0.13000
H2193       H  0.82391294  0.44302042  0.99893010     0.26300
H2194       H  0.81677715  0.43604657  0.02984769     0.26300
C2195       C  0.94382994  0.31549633  0.84809820     0.03300
C2196       C  0.96710740  0.33637488  0.83710303    -0.12900
C2197       C  0.96558653  0.33646214  0.81669514     0.00800
C2198       C  0.94160644  0.31418016  0.80718980    -0.11400
C2199       C  0.91935483  0.29183772  0.81796303     0.03300
C2200       C  0.92063193  0.29249167  0.83842671    -0.10800
H2201       H  0.98462812  0.35455938  0.84452417     0.08900
H2202       H  0.93990233  0.31451160  0.79140693     0.06400
H2203       H  0.90172829  0.27727218  0.84678120     0.06200
C2204       C  0.95166203  0.08913095  0.84758128     0.03300
C2205       C  0.97410443  0.06535146  0.83741599    -0.12900
C2206       C  0.96740941  0.05622433  0.81785113     0.00800
C2207       C  0.94045717  0.07360339  0.80789266    -0.11400
C2208       C  0.91827524  0.09711241  0.81753455     0.03300
C2209       C  0.92266510  0.10309469  0.83747885    -0.10800
H2210       H  0.99643909  0.05351319  0.84457592     0.08900
H2211       H  0.93650698  0.06880052  0.79251365     0.06400
H2212       H  0.90283640  0.11826444  0.84502172     0.06200
C2213       C  0.69012966  0.07301394  0.84987179     0.03300
C2214       C  0.71101903  0.09578232  0.83853731    -0.12900
C2215       C  0.70817773  0.09571409  0.81812913     0.00800
C2216       C  0.68361124  0.07346002  0.80916360    -0.11400
C2217       C  0.66141224  0.05183288  0.82040108     0.03300
C2218       C  0.66451390  0.05193764  0.84079285    -0.10800
H2219       H  0.73132288  0.11135424  0.84551027     0.08900
H2220       H  0.68196566  0.07269268  0.79337968     0.06400
H2221       H  0.64891873  0.03373104  0.84950533     0.06200
C2222       C  0.66924719  0.29663222  0.84787615     0.03300
C2223       C  0.64857670  0.32212687  0.83831775    -0.12900
C2224       C  0.65541546  0.33137911  0.81875170     0.00800
C2225       C  0.68265026  0.31396213  0.80869937    -0.11400
C2226       C  0.70257316  0.28737845  0.81799757     0.03300
C2227       C  0.69568921  0.27906016  0.83759969    -0.10800
H2228       H  0.62839875  0.33585200  0.84645996     0.08900
H2229       H  0.68817431  0.32089288  0.79364563     0.06400
H2230       H  0.71152100  0.25955759  0.84522715     0.06200
C2231       C  0.66905777  0.08516690  0.68433962     0.03300
C2232       C  0.69543128  0.10553008  0.69316820    -0.12900
C2233       C  0.70360332  0.10057599  0.71294238     0.00800
C2234       C  0.68492286  0.07522160  0.72390796    -0.11400
C2235       C  0.65799176  0.05524241  0.71536243     0.03300
C2236       C  0.64989360  0.06072833  0.69560229    -0.10800
H2237       H  0.71014003  0.12445489  0.68444499     0.08900
H2238       H  0.69135356  0.07115939  0.73913425     0.06400
H2239       H  0.62970477  0.04490560  0.68870440     0.06200
C2240       C  0.93685038  0.06810103  0.68241622     0.03300
C2241       C  0.96163109  0.04777857  0.69269537    -0.12900
C2242       C  0.96509948  0.05148102  0.71298920     0.00800
C2243       C  0.94365532  0.07592574  0.72291490    -0.11400
C2244       C  0.92000643  0.09756551  0.71259200     0.03300
C2245       C  0.91723505  0.09397203  0.69230090    -0.10800
H2246       H  0.97639676  0.02740994  0.68507536     0.08900
H2247       H  0.94510667  0.07785490  0.73867495     0.06400
H2248       H  0.89754027  0.10898197  0.68442676     0.06200
C2249       C  0.89255151  0.27060628  0.80785388     0.42600
N2250       N  0.85063494  0.25776879  0.78843267     0.01500
C2251       C  0.74863783  0.10541047  0.78767058    -0.06400
H2252       H  0.87993304  0.08118047  0.77934445     0.07000
C2253       C  0.87804007  0.15295667  0.71599625    -0.06700
Co2254     Co  0.81242043  0.19187215  0.80061866     0.74200
N2255       N  0.84996307  0.12875089  0.78493486    -0.25900
Co2256     Co  0.81273993  0.13026625  0.76301369     0.74100
C2257       C  0.89502090  0.12045033  0.72312629     0.42700
N2258       N  0.85122296  0.23844758  0.73074672     0.01100
N2259       N  0.85173452  0.13310349  0.74176644     0.01200
N2260       N  0.75062855  0.14521934  0.81246388    -0.46800
H2261       H  0.88126289  0.22152745  0.82723192     0.07000
N2262       N  0.85002818  0.15217707  0.79928213     0.01500
N2263       N  0.77511709  0.13290185  0.74115207     0.01200
C2264       C  0.73260876  0.12043916  0.72203608     0.42800
N2265       N  0.85076934  0.26173058  0.74517507    -0.25400
C2266       C  0.74847036  0.23586986  0.81399201    -0.06300
N2267       N  0.87547766  0.28160384  0.79170395    -0.46500
N2268       N  0.74980668  0.10949446  0.73814755    -0.46700
C2269       C  0.73113810  0.26861345  0.80770983     0.42600
N2270       N  0.77451224  0.15227369  0.79902584     0.01500
N2271       N  0.77472773  0.26083993  0.74513704    -0.25400
N2272       N  0.85030243  0.23181352  0.80149957    -0.25900
N2273       N  0.77506882  0.23787753  0.73054605     0.01100
H2274       H  0.74094435  0.30471705  0.75258275     0.07000
H2275       H  0.74402734  0.16948957  0.70258162     0.07000
N2276       N  0.77428549  0.12910607  0.78453892    -0.25900
N2277       N  0.85176121  0.15883342  0.72856223    -0.25500
N2278       N  0.77399935  0.25760680  0.78842419     0.01500
C2279       C  0.89032684  0.11521629  0.80672173     0.42900
C2280       C  0.87669441  0.28523607  0.74249739    -0.06800
N2281       N  0.77565691  0.15863317  0.72797484    -0.25500
H2282       H  0.88403878  0.16898477  0.70327220     0.07000
N2283       N  0.87365968  0.14492254  0.81277402    -0.46800
H2284       H  0.88204874  0.30799939  0.75169995     0.07000
C2285       C  0.73050356  0.27086198  0.72518597     0.42700
C2286       C  0.87574751  0.23775666  0.81452441    -0.06300
Co2287     Co  0.81253900  0.26035365  0.76677853     0.73800
N2288       N  0.87620732  0.24506122  0.71785808    -0.46500
C2289       C  0.73298407  0.11631282  0.80616736     0.43000
N2290       N  0.74842953  0.28076774  0.79178834    -0.46500
Co2291     Co  0.81348527  0.19856420  0.72894698     0.73900
C2292       C  0.74980388  0.15298928  0.71514478    -0.06800
C2293       C  0.87481764  0.10441739  0.78824762    -0.06400
N2294       N  0.77449459  0.23129614  0.80124121    -0.25900
N2295       N  0.87702058  0.10950446  0.73898641    -0.46700
H2296       H  0.74322764  0.08221992  0.77879218     0.07000
C2297       C  0.74747721  0.28277333  0.74301748    -0.06800
Cl2298     Cl  0.81284725  0.19526388  0.76483448    -0.49800
C2299       C  0.89350531  0.27408312  0.72438994     0.42700
H2300       H  0.74289972  0.21857779  0.82626675     0.07000
N2301       N  0.74917815  0.24320015  0.71806611    -0.46500
C2302       C  0.95307807  0.30372698  0.68341373     0.03300
C2303       C  0.92729263  0.28525489  0.69384388    -0.12900
C2304       C  0.92136333  0.29283435  0.71360223     0.00800
C2305       C  0.94149206  0.31916622  0.72282508    -0.11400
C2306       C  0.96773380  0.33747558  0.71257530     0.03300
C2307       C  0.97365413  0.32935606  0.69286119    -0.10800
H2308       H  0.91161017  0.26537132  0.68644299     0.08900
H2309       H  0.93700955  0.32526721  0.73806007     0.06400
H2310       H  0.99342467  0.34361785  0.68463586     0.06200
C2311       C  0.67288787  0.30805862  0.68542368     0.03300
C2312       C  0.69773709  0.28677943  0.69500051    -0.12900
C2313       C  0.70098119  0.28831848  0.71534787     0.00800
C2314       C  0.67861686  0.31047540  0.72608808    -0.11400
C2315       C  0.65351746  0.33147135  0.71665598     0.03300
C2316       C  0.64988465  0.32913593  0.69641380    -0.10800
H2317       H  0.71665645  0.27183580  0.68653290     0.08900
H2318       H  0.68161000  0.31238856  0.74175506     0.06400
H2319       H  0.63152616  0.34644869  0.68894344     0.06200
C2320       C  0.63536964  0.36033844  0.80915902     0.42600
N2321       N  0.62313636  0.40457985  0.79032853     0.01500
C2322       C  0.97590229  0.01031398  0.78953265    -0.06400
H2323       H  0.95328512  0.37454442  0.77811052     0.07000
C2324       C  0.52011041  0.38035017  0.71691126    -0.06700
Co2325     Co  0.55896165  0.44325820  0.80300712     0.74200
N2326       N  0.49777485  0.40413741  0.78671248    -0.25900
Co2327     Co  0.99851058  0.44675657  0.76392589     0.74100
C2328       C  0.98788723  0.36577343  0.72240627     0.42700
N2329       N  0.60305236  0.40551508  0.73272285     0.01100
N2330       N  0.50080665  0.40516327  0.74331317     0.01200
N2331       N  0.51486162  0.01201544  0.81468031    -0.46800
H2332       H  0.58705854  0.37116061  0.82843821     0.07000
N2333       N  0.52023297  0.40419043  0.80130140     0.01500
N2334       N  0.00085789  0.48617859  0.74248002     0.01200
C2335       C  0.98804844  0.02702339  0.72402621     0.42800
N2336       N  0.62571523  0.40528420  0.74719862    -0.25400
C2337       C  0.60605502  0.00975754  0.81760024    -0.06300
N2338       N  0.64622579  0.37872737  0.79327437    -0.46500
N2339       N  0.97797319  0.00973955  0.74040229    -0.46700
C2340       C  0.63842684  0.02607623  0.81053268     0.42600
N2341       N  0.52013159  0.48219814  0.80165566     0.01500
N2342       N  0.62651340  0.48325265  0.74680304    -0.25400
N2343       N  0.59782380  0.40440864  0.80340255    -0.25900
N2344       N  0.60366497  0.48355943  0.73238881     0.01100
H2345       H  0.67292778  0.01581091  0.75395037     0.07000
H2346       H  0.53586399  0.01748840  0.70519373     0.07000
N2347       N  0.99765709  0.48525352  0.78567630    -0.25900
N2348       N  0.52590768  0.40600099  0.73013130    -0.25500
N2349       N  0.62287955  0.48287175  0.79042412     0.01500
C2350       C  0.48591398  0.36036305  0.80757325     0.42900
C2351       C  0.64703445  0.37726598  0.74510960    -0.06800
N2352       N  0.52519406  0.48332023  0.73038956    -0.25500
H2353       H  0.53594567  0.37524359  0.70414109     0.07000
N2354       N  0.51371665  0.37878423  0.81431208    -0.46800
H2355       H  0.66867471  0.37068550  0.75457707     0.07000
C2356       C  0.63943711  0.02748032  0.72669730     0.42700
C2357       C  0.60327216  0.37745634  0.81596437    -0.06300
Co2358     Co  0.62530432  0.44413036  0.76868483     0.73800
N2359       N  0.60797768  0.37885885  0.72036569    -0.46500
C2360       C  0.98667456  0.02754483  0.80763456     0.43000
N2361       N  0.64781246  0.00852369  0.79420875    -0.46500
Co2362     Co  0.56463758  0.44474763  0.73100549     0.73900
C2363       C  0.52049655  0.01221625  0.71813839    -0.06800
C2364       C  0.97524367  0.38025796  0.78750277    -0.06400
N2365       N  0.59811874  0.48202037  0.80384862    -0.25900
N2366       N  0.97722162  0.38303662  0.73863532    -0.46700
H2367       H  0.95408104  0.01597827  0.78003107     0.07000
C2368       C  0.65047391  0.01037749  0.74488183    -0.06800
Cl2369     Cl  0.56182358  0.44412598  0.76698693    -0.49800
C2370       C  0.63500688  0.35962386  0.72742778     0.42700
H2371       H  0.59107254  0.01556540  0.83060252     0.07000
N2372       N  0.61083976  0.00988389  0.72042760    -0.46500
C2373       C  0.69945714  0.06652673  0.87050524    -0.19700
C2374       C  0.71277509  0.03295475  0.87619428     0.36500
C2375       C  0.72256253  0.02738008  0.89562638    -0.25700
C2376       C  0.71968175  0.05468893  0.90946987     0.02900
C2377       C  0.70689355  0.08848084  0.90384156     0.27700
C2378       C  0.69707525  0.09420129  0.88426146    -0.24800
N2379       N  0.71689742  0.00485904  0.86209436    -0.82200
H2380       H  0.73291436  0.00163424  0.90002475     0.13500
C2381       C  0.73058728  0.04657022  0.92968445     0.02900
N2382       N  0.70376660  0.11655724  0.91800041    -0.80800
H2383       H  0.68732694  0.12009333  0.87972216     0.18400
C2384       C  0.76127448  0.06179930  0.93710071    -0.25600
C2385       C  0.77650545  0.04870986  0.95430174     0.36400
C2386       C  0.76925738  0.51596123  0.96290023    -0.19700
C2387       C  0.74049336  0.49720146  0.95561208    -0.24900
C2388       C  0.72237063  0.50924620  0.93909442     0.27800
H2389       H  0.77448627  0.08261315  0.92891474     0.13500
N2390       N  0.80876171  0.06434704  0.96078754    -0.82200
H2391       H  0.73274927  0.47242635  0.96260509     0.18400
N2392       N  0.69303972  0.48932979  0.93184908    -0.80800
H2393       H  0.80376844  0.09114657  0.96402082     0.34000
H2394       H  0.81742780  0.05265749  0.97374618     0.38500
H2395       H  0.68838391  0.46680405  0.94052380     0.34000
H2396       H  0.67097466  0.50563141  0.93304481     0.30700
H2397       H  0.69386081  0.13971130  0.91148177     0.34000
H2398       H  0.68982971  0.60495124  0.92950944     0.30700
H2399       H  0.72683746  0.98178681  0.86868945     0.38500
H2400       H  0.73558944  0.01324197  0.85193023     0.34000
C2401       C  0.93942548  0.32277254  0.86921218    -0.19700
C2402       C  0.93749694  0.29520528  0.88320982     0.36500
C2403       C  0.92977290  0.30349384  0.90273246    -0.25700
C2404       C  0.92324351  0.33890155  0.90835469     0.02900
C2405       C  0.92618354  0.36664137  0.89449685     0.27700
C2406       C  0.93449197  0.35831549  0.87512627    -0.24800
N2407       N  0.94319766  0.25884628  0.87763571    -0.82200
H2408       H  0.92791833  0.28219831  0.91342578     0.13500
C2409       C  0.91232419  0.34726781  0.92856271     0.02900
N2410       N  0.91996033  0.40310784  0.90010801    -0.80800
H2411       H  0.93561623  0.37960117  0.86439577     0.18400
C2412       C  0.93472099  0.36834479  0.93993886    -0.25600
C2413       C  0.92328502  0.38396980  0.95735357     0.36400
C2414       C  0.88861223  0.37789827  0.96366575    -0.19700
C2415       C  0.86711088  0.35463977  0.95312337    -0.24900
C2416       C  0.87824987  0.33953533  0.93551827     0.27800
H2417       H  0.96073989  0.37442403  0.93462459     0.13500
N2418       N  0.94682833  0.40731760  0.96753008    -0.82200
H2419       H  0.84054609  0.35000742  0.95801108     0.18400
N2420       N  0.85360288  0.31823132  0.92480147    -0.80800
H2421       H  0.96814791  0.39196546  0.97206770     0.34000
H2422       H  0.93552880  0.41769063  0.98016544     0.38500
H2423       H  0.83259111  0.33470986  0.92105367     0.34000
H2424       H  0.86391944  0.30878725  0.91172770     0.30700
H2425       H  0.92353972  0.42032511  0.88823467     0.34000
H2426       H  0.89373290  0.40526439  0.90421199     0.30700
H2427       H  0.96386586  0.24876273  0.88594479     0.38500
H2428       H  0.92073792  0.24438742  0.88124069     0.34000
C2429       C  0.66264834  0.08810342  0.66309611    -0.19700
C2430       C  0.68966328  0.08160978  0.64950944     0.36500
C2431       C  0.68308850  0.08596956  0.62949291    -0.25700
C2432       C  0.64996635  0.09610020  0.62285132     0.02900
C2433       C  0.62262996  0.10155371  0.63635491     0.27700
C2434       C  0.62921320  0.09725739  0.65639261    -0.24800
N2435       N  0.72356391  0.07040945  0.65612078    -0.82200
H2436       H  0.70387189  0.08171392  0.61900082     0.13500
C2437       C  0.64473615  0.10351422  0.60185890     0.02900
N2438       N  0.58857891  0.11216063  0.62966127    -0.80800
H2439       H  0.60848287  0.10192829  0.66686467     0.18400
C2440       C  0.62201823  0.08196530  0.59100518    -0.25600
C2441       C  0.61200346  0.09174658  0.57207658     0.36400
C2442       C  0.62506434  0.12387785  0.56394500    -0.19700
C2443       C  0.65027899  0.14353872  0.57412565    -0.24900
C2444       C  0.65999295  0.13388774  0.59314670     0.27800
H2445       H  0.61072911  0.05831663  0.59764087     0.13500
N2446       N  0.58722750  0.06962888  0.56200937    -0.82200
H2447       H  0.65988216  0.16831350  0.56790049     0.18400
N2448       N  0.68355841  0.15599635  0.60409863    -0.80800
H2449       H  0.56353081  0.07110578  0.56956296     0.34000
H2450       H  0.58264200  0.07885553  0.54785902     0.38500
H2451       H  0.69245998  0.17731830  0.59555320     0.34000
H2452       H  0.66947269  0.16719299  0.61565071     0.30700
H2453       H  0.57137948  0.11487063  0.64143056     0.34000
H2454       H  0.59094093  0.13748185  0.62331798     0.30700
H2455       H  0.74077412  0.55429708  0.64357844     0.38500
H2456       H  0.71614404  0.53536630  0.66102721     0.34000
C2457       C  0.49920191  0.25597105  0.56487170    -0.19700
C2458       C  0.51595010  0.28447874  0.57461249     0.36500
C2459       C  0.00587035  0.29442952  0.59339183    -0.25700
C2460       C  0.97721535  0.27695316  0.60182972     0.02900
C2461       C  0.95927390  0.25046802  0.59126121     0.27700
C2462       C  0.97225866  0.23993559  0.57297777    -0.24800
N2463       N  0.54568771  0.30277902  0.56652719    -0.82200
H2464       H  0.01938558  0.31504369  0.60150239     0.13500
C2465       C  0.97009447  0.28291250  0.62273585     0.02900
N2466       N  0.92930963  0.23302506  0.59961044    -0.80800
H2467       H  0.96004801  0.21800142  0.56527457     0.18400
C2468       C  0.93958752  0.30053249  0.62864296    -0.25600
C2469       C  0.93346871  0.30761699  0.64850268     0.36400
C2470       C  0.95826476  0.29656271  0.66248363    -0.19700
C2471       C  0.98848954  0.27858165  0.65655498    -0.24900
C2472       C  0.99452342  0.27133803  0.63678386     0.27800
H2473       H  0.92095280  0.30923707  0.61773720     0.13500
N2474       N  0.90252508  0.32633326  0.65455462    -0.82200
H2475       H  0.00725231  0.26999625  0.66742472     0.18400
N2476       N  0.52724292  0.25338305  0.63116723    -0.80800
H2477       H  0.88695373  0.33253496  0.64249170     0.34000
H2478       H  0.91036973  0.35066366  0.66059322     0.38500
H2479       H  0.54300368  0.24729989  0.64317016     0.34000
H2480       H  0.52014125  0.22899760  0.62490647     0.30700
H2481       H  0.91917800  0.21419369  0.58990133     0.34000
H2482       H  0.93768353  0.21881454  0.61189669     0.30700
H2483       H  0.55160975  0.29365530  0.55253391     0.38500
H2484       H  0.53884701  0.32967550  0.56495018     0.34000
C2485       C  0.64106126  0.24236906  0.96830465    -0.19700
C2486       C  0.62184612  0.27050385  0.95992886     0.36500
C2487       C  0.62966738  0.28207503  0.94098777    -0.25700
C2488       C  0.65620033  0.26561791  0.93015946     0.02900
C2489       C  0.67726937  0.23920400  0.93900096     0.27700
C2490       C  0.66975802  0.22812782  0.95820868    -0.24800
N2491       N  0.59298119  0.28586211  0.97024964    -0.82200
H2492       H  0.61372739  0.30265779  0.93430257     0.13500
C2493       C  0.65915441  0.27385795  0.90908561     0.02900
N2494       N  0.70486333  0.22247620  0.92809818    -0.80800
H2495       H  0.68439317  0.20637988  0.96471368     0.18400
C2496       C  0.68858329  0.29196374  0.90202709    -0.25600
C2497       C  0.69181216  0.30002455  0.88211008     0.36400
C2498       C  0.66527323  0.28989871  0.86903132    -0.19700
C2499       C  0.63568778  0.27196593  0.87607675    -0.24900
C2500       C  0.63250216  0.26353397  0.89602545     0.27800
H2501       H  0.70902711  0.29995782  0.91202337     0.13500
N2502       N  0.72193364  0.31885311  0.87515552    -0.82200
H2503       H  0.61549940  0.26390042  0.86593905     0.18400
N2504       N  0.60258598  0.24418846  0.90310191    -0.80800
H2505       H  0.72334574  0.34322411  0.88252923     0.34000
H2506       H  0.74406498  0.30389657  0.87878161     0.38500
H2507       H  0.58541285  0.23856128  0.89166970     0.34000
H2508       H  0.61138099  0.21958133  0.90843179     0.30700
H2509       H  0.71764763  0.20339659  0.93667046     0.34000
H2510       H  0.69343306  0.20864989  0.91651276     0.30700
H2511       H  0.59755075  0.31327941  0.97159340     0.38500
H2512       H  0.57049228  0.28238726  0.96183296     0.34000
C2513       C  0.50407316  0.13777362  0.96868865    -0.19700
C2514       C  0.98814257  0.10560478  0.96326370     0.36500
C2515       C  0.97487867  0.09859830  0.94461026    -0.25700
C2516       C  0.97670585  0.12431801  0.92957879     0.02900
C2517       C  0.98831502  0.15921549  0.93425433     0.27700
C2518       C  0.49998876  0.16493861  0.95473731    -0.24800
N2519       N  0.99178091  0.07636302  0.97662781    -0.82200
H2520       H  0.96511458  0.07205806  0.94154378     0.13500
C2521       C  0.96875000  0.11394087  0.90893685     0.02900
N2522       N  0.49340519  0.18465911  0.92080473    -0.80800
H2523       H  0.50767115  0.19195546  0.95846377     0.18400
C2524       C  0.95000820  0.13752791  0.89694144    -0.25600
C2525       C  0.94661927  0.13159883  0.87681198     0.36400
C2526       C  0.95750599  0.09845176  0.86870338    -0.19700
C2527       C  0.97421657  0.07376897  0.88110913    -0.24900
C2528       C  0.98161654  0.08189019  0.90069677     0.27800
H2529       H  0.93931453  0.16178378  0.90311487     0.13500
N2530       N  0.93360458  0.15995561  0.86463360    -0.82200
H2531       H  0.98227517  0.04805152  0.87555951     0.18400
N2532       N  0.00299714  0.05802613  0.91201776    -0.80800
H2533       H  0.92654383  0.18217472  0.87294237     0.34000
H2534       H  0.95399715  0.16807779  0.85548384     0.38500
H2535       H  0.01027261  0.03570657  0.90382040     0.34000
H2536       H  0.53281069  0.07211345  0.91402481     0.30700
H2537       H  0.50048145  0.20909871  0.92700853     0.34000
H2538       H  0.01267334  0.17685832  0.90993587     0.30700
H2539       H  0.01801233  0.07433890  0.98069440     0.38500
H2540       H  0.97682841  0.08138217  0.98904500     0.34000
C2541       C  0.85894685  0.49934328  0.57009347    -0.19700
C2542       C  0.84764365  0.03869224  0.57881187     0.36500
C2543       C  0.86348591  0.05074109  0.59603604    -0.25700
C2544       C  0.89140060  0.03195550  0.60447535     0.02900
C2545       C  0.90514014  0.00179009  0.59486760     0.27700
C2546       C  0.88698675  0.48128794  0.57877321    -0.24800
N2547       N  0.81899033  0.05893341  0.57094446    -0.82200
H2548       H  0.85309722  0.07417348  0.60326592     0.13500
C2549       C  0.90406816  0.04192214  0.62419150     0.02900
N2550       N  0.93504075  0.98359326  0.60275324    -0.80800
H2551       H  0.89521927  0.45578689  0.57288406     0.18400
C2552       C  0.90095453  0.01680907  0.63932468    -0.25600
C2553       C  0.91210300  0.02473121  0.65831216     0.36400
C2554       C  0.92701642  0.05842362  0.66222854    -0.19700
C2555       C  0.92981738  0.08378014  0.64717677    -0.24900
C2556       C  0.91864652  0.07575686  0.62810448     0.27800
H2557       H  0.88585933  0.48931371  0.63629810     0.13500
N2558       N  0.90758654  0.99903152  0.67375490    -0.82200
H2559       H  0.94077567  0.10980924  0.65034697     0.18400
N2560       N  0.92215615  0.10164418  0.61270707    -0.80800
H2561       H  0.89032682  0.47615954  0.66880163     0.34000
H2562       H  0.88983113  0.00973335  0.68376868     0.38500
H2563       H  0.93333395  0.12518008  0.61800335     0.34000
H2564       H  0.93963414  0.09126511  0.60244558     0.30700
H2565       H  0.94186858  0.96185135  0.59399300     0.34000
H2566       H  0.95607699  0.00138359  0.60225275     0.30700
H2567       H  0.81093919  0.54127051  0.55629460     0.38500
H2568       H  0.79829059  0.05730097  0.58087130     0.34000
C2569       C  0.67672574  0.31542362  0.66436559    -0.19700
C2570       C  0.67829624  0.28800383  0.65032149     0.36500
C2571       C  0.68588431  0.29687625  0.63081236    -0.25700
C2572       C  0.69195186  0.33250056  0.62534381     0.02900
C2573       C  0.69014200  0.35982853  0.63937865     0.27700
C2574       C  0.68217351  0.35103619  0.65868147    -0.24800
N2575       N  0.67263537  0.25146228  0.65597614    -0.82200
H2576       H  0.68772735  0.27604264  0.61991061     0.13500
C2577       C  0.70328251  0.34118209  0.60533573     0.02900
N2578       N  0.69770800  0.39624130  0.63407470    -0.80800
H2579       H  0.68185393  0.37198108  0.66957319     0.18400
C2580       C  0.68240994  0.36371371  0.59383288    -0.25600
C2581       C  0.69551021  0.37862740  0.57649609     0.36400
C2582       C  0.72997222  0.37065783  0.57078935    -0.19700
C2583       C  0.74990856  0.34628871  0.58157443    -0.24900
C2584       C  0.73698872  0.33160682  0.59895200     0.27800
H2585       H  0.65657272  0.37100778  0.59893351     0.13500
N2586       N  0.67483979  0.40321284  0.56525244    -0.82200
H2587       H  0.77635486  0.34034700  0.57694686     0.18400
N2588       N  0.75857864  0.30858889  0.61066084    -0.80800
H2589       H  0.65035458  0.40681296  0.57173749     0.34000
H2590       H  0.67032152  0.39152699  0.55165179     0.38500
H2591       H  0.78256807  0.30406461  0.60378587     0.34000
H2592       H  0.76409232  0.32200000  0.62366123     0.30700
H2593       H  0.69507147  0.41309613  0.64613227     0.34000
H2594       H  0.72393761  0.39746393  0.62984890     0.30700
H2595       H  0.64686705  0.24930618  0.66090518     0.38500
H2596       H  0.67492588  0.23460167  0.64389884     0.34000
C2597       C  0.75941566  0.50682630  0.06500545    -0.19700
C2598       C  0.73119283  0.48768979  0.07332608     0.36500
C2599       C  0.71795345  0.49835572  0.09144486    -0.25700
C2600       C  0.72444138  0.03326640  0.10193193     0.02900
C2601       C  0.75116819  0.05161866  0.09193154     0.27700
C2602       C  0.76191984  0.03931010  0.07360294    -0.24800
N2603       N  0.71641432  0.45657710  0.06424690    -0.82200
H2604       H  0.69789816  0.48228380  0.09837191     0.13500
C2605       C  0.71931094  0.03833615  0.12308654     0.02900
N2606       N  0.76872618  0.08110989  0.10103969    -0.80800
H2607       H  0.78414840  0.05160257  0.06643939     0.18400
C2608       C  0.74750924  0.03102118  0.13551659    -0.25600
C2609       C  0.74337732  0.03142930  0.15581632     0.36400
C2610       C  0.71027110  0.03914343  0.16378573    -0.19700
C2611       C  0.68211256  0.04685182  0.15136422    -0.24900
C2612       C  0.68641074  0.04682592  0.13100918     0.27800
H2613       H  0.77262705  0.02395678  0.12930475     0.13500
N2614       N  0.77244543  0.02347913  0.16836452    -0.82200
H2615       H  0.65689979  0.05341912  0.15760476     0.18400
N2616       N  0.65770174  0.05541838  0.11835217    -0.80800
H2617       H  0.79500388  0.01866778  0.16015867     0.34000
H2618       H  0.76670750  0.99976155  0.17579179     0.38500
H2619       H  0.63529591  0.06110527  0.12651635     0.34000
H2620       H  0.66420237  0.07886033  0.11085170     0.30700
H2621       H  0.78829817  0.09117963  0.09190015     0.34000
H2622       H  0.75040984  0.10155636  0.10283388     0.30700
H2623       H  0.72742712  0.45174168  0.05056785     0.38500
H2624       H  0.72223492  0.43453343  0.07305824     0.34000
C2625       C  0.68062279  0.05465540  0.37156828    -0.19700
C2626       C  0.70643990  0.05540530  0.38625508     0.36500
C2627       C  0.69712160  0.06580582  0.40530571    -0.25700
C2628       C  0.66253990  0.07502398  0.40979490     0.02900
C2629       C  0.63655300  0.07296432  0.39533776     0.27700
C2630       C  0.64583600  0.06269592  0.37639502    -0.24800
N2631       N  0.74194053  0.04613377  0.38167725    -0.82200
H2632       H  0.71691974  0.06766974  0.41653640     0.13500
C2633       C  0.65395234  0.09098048  0.42885854     0.02900
N2634       N  0.60120343  0.08328775  0.39973229    -0.80800
H2635       H  0.62605514  0.06255319  0.36510296     0.18400
C2636       C  0.65634656  0.12814905  0.43067202    -0.25600
C2637       C  0.64221474  0.14558746  0.44690019     0.36400
C2638       C  0.62500591  0.12564131  0.46146847    -0.19700
C2639       C  0.62430760  0.08817822  0.46017621    -0.24900
C2640       C  0.63897704  0.07055199  0.44400853     0.27800
H2641       H  0.66796293  0.14381947  0.41902879     0.13500
N2642       N  0.64442452  0.18369557  0.44832475    -0.82200
H2643       H  0.61139416  0.07284194  0.47150900     0.18400
N2644       N  0.63848669  0.03221046  0.44281250    -0.80800
H2645       H  0.63239254  0.19477323  0.43603035     0.34000
H2646       H  0.67081361  0.19083848  0.44799676     0.38500
H2647       H  0.62702268  0.02123423  0.45531950     0.34000
H2648       H  0.62262486  0.02498966  0.43108026     0.30700
H2649       H  0.58549482  0.08137751  0.38731356     0.34000
H2650       H  0.59118040  0.06500352  0.40982889     0.30700
H2651       H  0.74223051  0.01927965  0.37752091     0.38500
H2652       H  0.75767529  0.04813066  0.39408242     0.34000
C2653       C  0.91564413  0.02877855  0.36957983    -0.19700
C2654       C  0.94102976  0.03644521  0.38389011     0.36500
C2655       C  0.93245743  0.03248866  0.40377176    -0.25700
C2656       C  0.89882626  0.02188307  0.40948775     0.02900
C2657       C  0.87330380  0.01487277  0.39519866     0.27700
C2658       C  0.88194013  0.01852552  0.37538486    -0.24800
N2659       N  0.97507051  0.04887195  0.37817211    -0.82200
H2660       H  0.95188765  0.03788421  0.41485619     0.13500
C2661       C  0.89066749  0.01615312  0.43039071     0.02900
N2662       N  0.84263425  0.49780535  0.40246262    -0.80800
H2663       H  0.86237460  0.01313930  0.36436638     0.18400
C2664       C  0.86738082  0.03932805  0.43984542    -0.25600
C2665       C  0.85365049  0.03091424  0.45828392     0.36400
C2666       C  0.86831709  0.48743977  0.46804349    -0.19700
C2667       C  0.89182209  0.46488791  0.45828337    -0.24900
C2668       C  0.90238664  0.98514875  0.44005217     0.27800
H2669       H  0.85838292  0.06316668  0.43237718     0.13500
N2670       N  0.82822783  0.05465501  0.46666055    -0.82200
H2671       H  0.89748722  0.43877510  0.46437526     0.18400
N2672       N  0.92613240  0.96113296  0.43045744    -0.80800
H2673       H  0.80610104  0.05416532  0.45774238     0.34000
H2674       H  0.82953163  0.53713127  0.48323795     0.38500
H2675       H  0.93319787  0.42751786  0.43806263     0.34000
H2676       H  0.91328840  0.95053767  0.41832505     0.30700
H2677       H  0.82602415  0.49597250  0.39041274     0.33600
H2678       H  0.84531436  0.47191933  0.40803781     0.30700
H2679       H  0.97188278  0.07361390  0.37127962     0.38500
H2680       H  0.99060200  0.05341244  0.39045216     0.34000
C2681       C  0.63837013  0.25284282  0.07055585    -0.19700
C2682       C  0.66959556  0.23793332  0.07766907     0.36500
C2683       C  0.68406381  0.25139599  0.09492151    -0.25700
C2684       C  0.66763778  0.27925637  0.10506107     0.02900
C2685       C  0.63771122  0.29577429  0.09716750     0.27700
C2686       C  0.62338899  0.28241530  0.07982717    -0.24800
N2687       N  0.68490936  0.20761556  0.06807653    -0.82200
H2688       H  0.70700270  0.23881362  0.10113566     0.13500
C2689       C  0.67846226  0.28668265  0.12529603     0.02900
N2690       N  0.62094558  0.32461194  0.10736053    -0.80800
H2691       H  0.59934203  0.29360392  0.07415421     0.18400
C2692       C  0.69154575  0.32041869  0.13037207    -0.25600
C2693       C  0.69952439  0.32846566  0.14991007     0.36400
C2694       C  0.69471200  0.30202845  0.16433131    -0.19700
C2695       C  0.68220595  0.26819749  0.15912830    -0.24900
C2696       C  0.67340995  0.26043740  0.13980934     0.27800
H2697       H  0.69495182  0.34053448  0.11913272     0.13500
N2698       N  0.71204807  0.36328058  0.15522224    -0.82200
H2699       H  0.67792327  0.24824622  0.17037478     0.18400
N2700       N  0.65825812  0.22644254  0.13492372    -0.80800
H2701       H  0.71389156  0.37969842  0.14289643     0.34000
H2702       H  0.73740756  0.36023228  0.16060999     0.38500
H2703       H  0.65626598  0.21018258  0.14730386     0.34000
H2704       H  0.63273594  0.23111261  0.13013454     0.30700
H2705       H  0.59933589  0.33384421  0.09951810     0.34000
H2706       H  0.61132432  0.31446766  0.12054206     0.30700
H2707       H  0.69303837  0.21595691  0.05422753     0.38500
H2708       H  0.70730667  0.19916629  0.07547685     0.34000
C2709       C  0.49829936  0.13559262  0.07196704    -0.19700
C2710       C  0.98194763  0.15559294  0.08687237     0.36500
C2711       C  0.96839107  0.13842963  0.10340263    -0.25700
C2712       C  0.96681874  0.10108745  0.10456482     0.02900
C2713       C  0.48420750  0.08019866  0.08937396     0.27700
C2714       C  0.49729980  0.09808350  0.07281728    -0.24800
N2715       N  0.98264511  0.19400299  0.08666630    -0.82200
H2716       H  0.96035144  0.15434835  0.11581551     0.13500
C2717       C  0.96036548  0.08447050  0.12386646     0.02900
N2718       N  0.48402355  0.04181234  0.09024847    -0.80800
H2719       H  0.50844593  0.08277546  0.06093950     0.18400
C2720       C  0.92705966  0.07190134  0.12899812    -0.25600
C2721       C  0.92025999  0.05924326  0.14805049     0.36400
C2722       C  0.94732012  0.05943656  0.16205892    -0.19700
C2723       C  0.98088968  0.07058668  0.15651144    -0.24900
C2724       C  0.98766450  0.08309447  0.13758981     0.27800
H2725       H  0.90628664  0.07275184  0.11829052     0.13500
N2726       N  0.88606045  0.04663997  0.15331854    -0.82200
H2727       H  0.00161909  0.07097133  0.16725735     0.18400
N2728       N  0.52570024  0.08816069  0.13348556    -0.80800
H2729       H  0.88828490  0.01954327  0.15684882     0.34000
H2730       H  0.86915399  0.04827188  0.14138169     0.38500
H2731       H  0.54197916  0.08419524  0.14553389     0.34000
H2732       H  0.53454886  0.07081636  0.12263381     0.30700
H2733       H  0.49372047  0.03106599  0.07725606     0.34000
H2734       H  0.50115090  0.03381085  0.10127632     0.30700
H2735       H  0.99091006  0.20408171  0.07322117     0.38500
H2736       H  0.00062148  0.20233666  0.09718095     0.34000
C2737       C  0.73524917  0.36322352  0.46922232    -0.19700
C2738       C  0.70551197  0.37785147  0.46016211     0.36500
C2739       C  0.69469195  0.36412972  0.44211988    -0.25700
C2740       C  0.71299731  0.33588884  0.43341709     0.02900
C2741       C  0.73988940  0.31848345  0.44374093     0.27700
C2742       C  0.75108643  0.33260460  0.46157242    -0.24800
N2743       N  0.68854483  0.40844930  0.46853577    -0.82200
H2744       H  0.67386630  0.37722274  0.43414952     0.13500
C2745       C  0.70883789  0.32946461  0.41233827     0.02900
N2746       N  0.75705410  0.28798269  0.43537018    -0.80800
H2747       H  0.77358070  0.32122026  0.46888175     0.18400
C2748       C  0.73743202  0.33694635  0.40018017    -0.25600
C2749       C  0.73528255  0.33229491  0.37998147     0.36400
C2750       C  0.70388746  0.31981250  0.37183055    -0.19700
C2751       C  0.67497245  0.31287037  0.38392364    -0.24900
C2752       C  0.67720701  0.31748637  0.40423318     0.27800
H2753       H  0.76143581  0.34691840  0.40652423     0.13500
N2754       N  0.76460746  0.34069955  0.36766416    -0.82200
H2755       H  0.65083060  0.30348011  0.37749316     0.18400
N2756       N  0.64779250  0.30993192  0.41662824    -0.80800
H2757       H  0.78576811  0.34946241  0.37600482     0.34000
H2758       H  0.75736082  0.36211651  0.35872017     0.38500
H2759       H  0.62650060  0.30136757  0.40832969     0.34000
H2760       H  0.65468225  0.28858182  0.42570823     0.30700
H2761       H  0.77655275  0.27850724  0.44470905     0.34000
H2762       H  0.73848643  0.26762105  0.43421047     0.30700
H2763       H  0.67804859  0.40053844  0.48196020     0.38500
H2764       H  0.66753502  0.41651242  0.45985069     0.34000
C2765       C  0.91997449  0.32677474  0.16436882    -0.19700
C2766       C  0.94553663  0.31775289  0.15036373     0.36500
C2767       C  0.93869203  0.32392964  0.13046350    -0.25700
C2768       C  0.90700023  0.33920969  0.12439779     0.02900
C2769       C  0.88141899  0.34797131  0.13850047     0.27700
C2770       C  0.88807179  0.34127450  0.15830427    -0.24800
N2771       N  0.97772660  0.30124786  0.15632589    -0.82200
H2772       H  0.95810756  0.31685416  0.11962357     0.13500
C2773       C  0.90097746  0.34714148  0.10338397     0.02900
N2774       N  0.84896949  0.36411638  0.13266875    -0.80800
H2775       H  0.86847343  0.34785098  0.16914682     0.18400
C2776       C  0.87089565  0.33374577  0.09429598    -0.25600
C2777       C  0.86043679  0.34607747  0.07590347     0.36400
C2778       C  0.88106375  0.37187029  0.06610496    -0.19700
C2779       C  0.91299522  0.38247542  0.07427400    -0.24900
C2780       C  0.92301779  0.37069713  0.09295973     0.27800
H2781       H  0.85435594  0.31494522  0.10203687     0.13500
N2782       N  0.82811054  0.33296898  0.06803298    -0.82200
H2783       H  0.92860057  0.40238334  0.06676642     0.18400
N2784       N  0.95432916  0.38423240  0.10182465    -0.80800
H2785       H  0.80790095  0.34213838  0.07699355     0.34000
H2786       H  0.82344029  0.34295893  0.05404883     0.38500
H2787       H  0.96758434  0.40119707  0.09219672     0.34000
H2788       H  0.94693446  0.39981879  0.11377735     0.30700
H2789       H  0.83292091  0.36857806  0.14477892     0.34000
H2790       H  0.85470587  0.38920102  0.12673310     0.30700
H2791       H  0.99205890  0.32014927  0.16413456     0.38500
H2792       H  0.99287771  0.29466949  0.14414757     0.34000
C2793       C  0.93691744  0.30304410  0.37113034    -0.19700
C2794       C  0.94472610  0.26815544  0.37771759     0.36500
C2795       C  0.95292908  0.26260383  0.39735074    -0.25700
C2796       C  0.95433235  0.29108981  0.41052262     0.02900
C2797       C  0.94680079  0.32602450  0.40405773     0.27700
C2798       C  0.93804280  0.33168275  0.38434533    -0.24800
N2799       N  0.94587923  0.23869890  0.36428218    -0.82200
H2800       H  0.95974211  0.23596963  0.40229584     0.13500
C2801       C  0.96667890  0.28325995  0.43050740     0.02900
N2802       N  0.94853316  0.35547199  0.41742619    -0.80800
H2803       H  0.93261057  0.35849400  0.37917442     0.18400
C2804       C  0.49322649  0.29632993  0.43536988    -0.25600
C2805       C  0.51169385  0.28180336  0.45110717     0.36400
C2806       C  0.49546142  0.25556810  0.46294038    -0.19700
C2807       C  0.96694427  0.24303351  0.45839747    -0.24900
C2808       C  0.94995481  0.25682593  0.44189072     0.27800
H2809       H  0.50638866  0.31490380  0.42567909     0.13500
N2810       N  0.54697807  0.29361653  0.45426792    -0.82200
H2811       H  0.95505892  0.22158686  0.46672436     0.18400
N2812       N  0.91655061  0.24304092  0.43603191    -0.80800
H2813       H  0.56189412  0.28547926  0.44228250     0.34000
H2814       H  0.55804945  0.28181403  0.46660106     0.38500
H2815       H  0.90799857  0.22340576  0.44580622     0.34000
H2816       H  0.89858321  0.26402439  0.43682747     0.30700
H2817       H  0.94259603  0.37939490  0.41026032     0.34000
H2818       H  0.92915248  0.35159835  0.42798287     0.30700
H2819       H  0.96635772  0.24343738  0.35450191     0.38500
H2820       H  0.95181514  0.21485907  0.37153942     0.34000
C2821       C  0.93251877  0.80683589  0.34997551     0.03300
C2822       C  0.95639527  0.82933241  0.34036070    -0.12900
C2823       C  0.95768097  0.83045689  0.31991689     0.00800
C2824       C  0.93480728  0.80908988  0.30911476    -0.11400
C2825       C  0.91019398  0.78734234  0.31859411     0.03300
C2826       C  0.90850802  0.78712000  0.33898697    -0.10800
H2827       H  0.97538563  0.84419813  0.34877720     0.08900
H2828       H  0.93645922  0.80915862  0.29332738     0.06400
H2829       H  0.88994934  0.76988958  0.34636760     0.06200
C2830       C  0.92255069  0.82415371  0.18608903     0.03300
C2831       C  0.94878349  0.84179186  0.19654074    -0.12900
C2832       C  0.95563376  0.83261499  0.21601524     0.00800
C2833       C  0.93550417  0.80592175  0.22507475    -0.11400
C2834       C  0.90854426  0.78863225  0.21492535     0.03300
C2835       C  0.90200707  0.79814715  0.19541847    -0.10800
H2836       H  0.96428336  0.86213894  0.18931703     0.08900
H2837       H  0.94064203  0.79864165  0.24009654     0.06400
H2838       H  0.88180176  0.78462994  0.18722770     0.06200
C2839       C  0.69677092  0.81006503  0.35218841     0.03300
C2840       C  0.67203825  0.83026475  0.34190996    -0.12900
C2841       C  0.66813824  0.82605187  0.32166262     0.00800
C2842       C  0.68885076  0.80085073  0.31183712    -0.11400
C2843       C  0.71430553  0.78111204  0.32195701     0.03300
C2844       C  0.71799676  0.78578442  0.34213567    -0.10800
H2845       H  0.65610533  0.84939674  0.34973261     0.08900
H2846       H  0.68595666  0.79746096  0.29622069     0.06400
H2847       H  0.73717311  0.77038187  0.35016064     0.06200
C2848       C  0.93930851  0.55223384  0.18368628     0.03300
C2849       C  0.91474024  0.57258798  0.19399505    -0.12900
C2850       C  0.91359138  0.57139655  0.21444854     0.00800
C2851       C  0.93667106  0.54890010  0.22458864    -0.11400
C2852       C  0.96007858  0.52693210  0.21438525     0.03300
C2853       C  0.96128060  0.52871938  0.19391449    -0.10800
H2854       H  0.89851683  0.59149554  0.18615314     0.08900
H2855       H  0.93639537  0.54847408  0.24040746     0.06400
H2856       H  0.98067190  0.51344767  0.18597231     0.06200
C2857       C  0.98479895  0.85144145  0.30986162     0.42600
N2858       N  0.52640033  0.86423242  0.29049398     0.01500
C2859       C  0.63013624  0.51585056  0.28971474    -0.06400
H2860       H  0.49665619  0.53814191  0.28140835     0.07000
C2861       C  0.50114346  0.97034836  0.21768627    -0.06700
Co2862     Co  0.56550559  0.92925855  0.30291705     0.74200
N2863       N  0.52771353  0.99235243  0.28721568    -0.25900
Co2864     Co  0.56516835  0.99157489  0.26526696     0.74100
C2865       C  0.48414589  0.50176087  0.22546394     0.42700
N2866       N  0.52637945  0.88450265  0.23273062     0.01100
N2867       N  0.52640545  0.98947790  0.24386604     0.01200
N2868       N  0.62833317  0.97557864  0.31421854    -0.46800
H2869       H  0.49654042  0.89986563  0.32960562     0.07000
N2870       N  0.52787359  0.96905395  0.30169153     0.01500
N2871       N  0.60295024  0.98947797  0.24338521     0.01200
C2872       C  0.64477674  0.00293162  0.22388015     0.42800
N2873       N  0.52645769  0.86105852  0.24714159    -0.25400
C2874       C  0.62719393  0.88192173  0.31699283    -0.06300
N2875       N  0.50119457  0.84072156  0.29371763    -0.46500
N2876       N  0.62780393  0.01337243  0.24016969    -0.46700
C2877       C  0.64275547  0.84817892  0.31081901     0.42600
N2878       N  0.60381078  0.96877637  0.30113401     0.01500
N2879       N  0.60262392  0.86118601  0.24710384    -0.25400
N2880       N  0.52722390  0.88975568  0.30373689    -0.25900
N2881       N  0.60252949  0.88449120  0.23260508     0.01100
H2882       H  0.63568559  0.81639146  0.25406337     0.07000
H2883       H  0.63343307  0.95416511  0.20436553     0.07000
N2884       N  0.60367770  0.99212902  0.28666101    -0.25900
N2885       N  0.52662853  0.96395958  0.23062085    -0.25500
N2886       N  0.60278937  0.86314703  0.29048182     0.01500
C2887       C  0.48604607  0.50348332  0.30871704     0.42900
C2888       C  0.50004060  0.83813985  0.24454516    -0.06800
N2889       N  0.60249057  0.96392325  0.23017542    -0.25500
H2890       H  0.49570261  0.95460188  0.20483533     0.07000
N2891       N  0.50336031  0.97546577  0.31489077    -0.46800
H2892       H  0.99540033  0.81513494  0.25371699     0.07000
C2893       C  0.64632244  0.85077057  0.22676201     0.42700
C2894       C  0.50176126  0.88386412  0.31681175    -0.06300
Co2895     Co  0.56456620  0.86161274  0.26877222     0.73800
N2896       N  0.50108634  0.87863862  0.21996719    -0.46500
C2897       C  0.64598984  0.00442903  0.30760763     0.43000
N2898       N  0.62626396  0.83805880  0.29431785    -0.46500
Co2899     Co  0.56450542  0.92407799  0.23107820     0.73900
C2900       C  0.62793931  0.97017658  0.21711923    -0.06800
C2901       C  0.50248498  0.51535280  0.29056317    -0.06400
N2902       N  0.60280047  0.88897014  0.30354305    -0.25900
N2903       N  0.50178994  0.51268346  0.24139453    -0.46700
H2904       H  0.63536548  0.53911982  0.28078869     0.07000
C2905       C  0.62949197  0.83882136  0.24471210    -0.06800
Cl2906     Cl  0.56496828  0.92661598  0.26700812    -0.49800
C2907       C  0.98449752  0.85003007  0.22662141     0.42700
H2908       H  0.63217337  0.89766007  0.32990179     0.07000
N2909       N  0.62801206  0.87889424  0.21988760    -0.46500
C2910       C  0.69827257  0.81046921  0.18552852     0.03300
C2911       C  0.67533850  0.83294537  0.19574624    -0.12900
C2912       C  0.67418749  0.83206640  0.21616982     0.00800
C2913       C  0.69685485  0.80950841  0.22639956    -0.11400
C2914       C  0.72020839  0.78732380  0.21643960     0.03300
C2915       C  0.72148091  0.78851639  0.19600882    -0.10800
H2916       H  0.65613303  0.84848749  0.18780989     0.08900
H2917       H  0.69551252  0.80837556  0.24217543     0.06400
H2918       H  0.73838484  0.77023053  0.18819374     0.06200
C2919       C  0.92393420  0.53497294  0.34982302     0.03300
C2920       C  0.90406247  0.56061301  0.33967913    -0.12900
C2921       C  0.91124878  0.56826711  0.32000466     0.00800
C2922       C  0.93773280  0.54934452  0.31043993    -0.11400
C2923       C  0.45643602  0.52047169  0.31892272     0.03300
C2924       C  0.95054506  0.51630630  0.33995364    -0.10800
H2925       H  0.88383674  0.57530151  0.34729323     0.08900
H2926       H  0.94281332  0.55461765  0.29519385     0.06400
H2927       H  0.46391214  0.49279966  0.34632029     0.06200
C2928       C  0.68918387  0.54959258  0.35127698     0.03300
C2929       C  0.71479210  0.57025913  0.34181283    -0.12900
C2930       C  0.71764972  0.56978086  0.32139000     0.00800
C2931       C  0.69548962  0.54767410  0.31052399    -0.11400
C2932       C  0.67086924  0.52582352  0.31983844     0.03300
C2933       C  0.66789343  0.52675164  0.34023957    -0.10800
H2934       H  0.73033871  0.58890076  0.35019229     0.08900
H2935       H  0.69711703  0.54785904  0.29472918     0.06400
H2936       H  0.64759848  0.51143639  0.34746153     0.06200
C2937       C  0.70387121  0.54172810  0.18395529     0.03300
C2938       C  0.72304879  0.56637792  0.19501437    -0.12900
C2939       C  0.71697011  0.57013196  0.21504867     0.00800
C2940       C  0.69087137  0.54951369  0.22401072    -0.11400
C2941       C  0.67137272  0.52477913  0.21321259     0.03300
C2942       C  0.67803331  0.52092556  0.19315254    -0.10800
H2943       H  0.74241645  0.58305321  0.18790758     0.08900
H2944       H  0.68600577  0.55227053  0.23950413     0.06400
H2945       H  0.66314962  0.50192168  0.18465998     0.06200
C2946       C  0.73689951  0.75562215  0.31148406     0.42600
N2947       N  0.75275774  0.71528265  0.29122624     0.01500
C2948       C  0.90317138  0.61372883  0.29107463    -0.06400
H2949       H  0.92252558  0.75017051  0.28008962     0.07000
C2950       C  0.85649469  0.74228713  0.21794143    -0.06700
Co2951     Co  0.81748575  0.67755341  0.30383425     0.74200
N2952       N  0.87823461  0.71721340  0.28720387    -0.25900
Co2953     Co  0.87830973  0.67791491  0.26602432     0.74100
C2954       C  0.88849187  0.75974546  0.22457852     0.42700
N2955       N  0.77332892  0.71562140  0.23338521     0.01100
N2956       N  0.87594930  0.71659392  0.24406961     0.01200
N2957       N  0.86381889  0.61428827  0.31577375    -0.46800
H2958       H  0.78481327  0.74516141  0.33109438     0.07000
N2959       N  0.85564859  0.71723906  0.30177411     0.01500
N2960       N  0.87655115  0.63841848  0.24470188     0.01200
C2961       C  0.89077091  0.59619243  0.22520088     0.42800
N2962       N  0.75070347  0.71558929  0.24793880    -0.25400
C2963       C  0.77220434  0.61271353  0.31799122    -0.06300
N2964       N  0.72779446  0.73881446  0.29488134    -0.46500
N2965       N  0.90063370  0.61374153  0.24145597    -0.46700
C2966       C  0.74030274  0.59543996  0.31107525     0.42600
N2967       N  0.85697185  0.63930885  0.30257702     0.01500
N2968       N  0.75074740  0.63795663  0.24796550    -0.25400
N2969       N  0.77765342  0.71539636  0.30449942    -0.25900
N2970       N  0.77345963  0.63786435  0.23347412     0.01100
H2971       H  0.70430768  0.60744156  0.25395378     0.07000
H2972       H  0.84330329  0.60721180  0.20541452     0.07000
N2973       N  0.87973708  0.63962462  0.28809728    -0.25900
N2974       N  0.85083435  0.71602755  0.23094155    -0.25500
N2975       N  0.75424133  0.63745116  0.29124634     0.01500
C2976       C  0.88935345  0.76169079  0.30737319     0.42900
C2977       C  0.72834929  0.74263815  0.24542543    -0.06800
N2978       N  0.85160389  0.63841987  0.23143151    -0.25500
H2979       H  0.84055843  0.74786023  0.20528288     0.07000
N2980       N  0.86178012  0.74313852  0.31444191    -0.46800
H2981       H  0.70625525  0.74856178  0.25471875     0.07000
C2982       C  0.73719816  0.59622210  0.22648186     0.42700
C2983       C  0.76994932  0.74005441  0.31799026    -0.06300
Co2984     Co  0.75154519  0.67654510  0.26958435     0.73800
N2985       N  0.76725458  0.74132606  0.22050412    -0.46500
C2986       C  0.89252051  0.59684883  0.30938197     0.43000
N2987       N  0.73060969  0.61240538  0.29456761    -0.46500
Co2988     Co  0.81221465  0.67689798  0.23187353     0.73900
C2989       C  0.85842094  0.61272595  0.21837933    -0.06800
C2990       C  0.90038532  0.74444963  0.28940039    -0.06400
N2991       N  0.77892465  0.63819613  0.30467054    -0.25900
N2992       N  0.89906342  0.74224283  0.24078919    -0.46700
H2993       H  0.92558142  0.60853955  0.28189383     0.07000
C2994       C  0.72702344  0.61236316  0.24494797    -0.06800
Cl2995     Cl  0.81490011  0.67712023  0.26784436    -0.49800
C2996       C  0.73951540  0.75975290  0.22731892     0.42700
H2997       H  0.78708500  0.60776686  0.33112480     0.07000
N2998       N  0.76604971  0.61352985  0.22010365    -0.46500
N2999       N  0.79386986  0.94257648  0.54943769    -0.36500
N3000       N  0.83382135  0.97984466  0.51909318    -0.57000
N3001       N  0.79817101  0.93656771  0.48988073    -0.36500
N3002       N  0.75506743  0.90278086  0.51998608    -0.57000
C3003       C  0.81049611  0.96739247  0.56034429     0.27100
C3004       C  0.76883956  0.92744242  0.56073145     0.27100
C3005       C  0.81487442  0.96036494  0.47825832     0.27100
C3006       C  0.77449858  0.91926628  0.47873093     0.27100
C3007       C  0.85118786  0.99195382  0.53489126     0.35700
C3008       C  0.85268201  0.98960397  0.50326432     0.35700
C3009       C  0.74143379  0.88705760  0.53602376     0.35700
C3010       C  0.74430786  0.88335538  0.50455681     0.35700
C3011       C  0.79597005  0.96773181  0.57892445    -0.21800
C3012       C  0.76972869  0.94268041  0.57914193    -0.21800
C3013       C  0.80184544  0.95784193  0.45943018    -0.21700
C3014       C  0.77660639  0.93187945  0.45970471    -0.21700
C3015       C  0.88238124  0.50109774  0.52953867    -0.22800
C3016       C  0.88469527  0.49832805  0.50957545    -0.22800
C3017       C  0.72117908  0.85796426  0.53071897    -0.22800
C3018       C  0.72298844  0.85563646  0.51075149    -0.22800
C3019       C  0.83969165  0.98827578  0.55444871    -0.18200
C3020       C  0.74646265  0.89888961  0.55536922    -0.18200
C3021       C  0.75219031  0.89118738  0.48489319    -0.18200
C3022       C  0.84306017  0.98274229  0.48372402    -0.18200
H3023       H  0.80365659  0.98397438  0.59122101     0.14800
H3024       H  0.75341560  0.93615135  0.59156327     0.14800
H3025       H  0.80997085  0.97275636  0.44666060     0.14800
H3026       H  0.76174733  0.92319805  0.44717349     0.14800
H3027       H  0.90069812  0.51488202  0.53888034     0.13000
H3028       H  0.90502755  0.50961526  0.50046969     0.13000
H3029       H  0.70654630  0.84031998  0.54022667     0.13000
H3030       H  0.70994362  0.83593841  0.50181746     0.13000
H3031       H  0.80066218  0.93491753  0.53549637     0.26300
H3032       H  0.80405243  0.93083980  0.50425014     0.26300
N3033       N  0.56070996  0.69243575  0.05110318    -0.36500
N3034       N  0.60830331  0.72057349  0.02184977    -0.57000
N3035       N  0.56920034  0.68138256  0.99330396    -0.36500
N3036       N  0.52378730  0.65012893  0.02194116    -0.57000
C3037       C  0.58728508  0.70526886  0.06203937     0.27100
C3038       C  0.54366413  0.66790941  0.06208402     0.27100
C3039       C  0.59857429  0.69016710  0.98352320     0.27100
C3040       C  0.55467754  0.65363921  0.98378813     0.27100
C3041       C  0.61685136  0.74186905  0.03687892     0.35700
C3042       C  0.62048836  0.73661736  0.00559020     0.35700
C3043       C  0.50186734  0.64646254  0.03716850     0.35700
C3044       C  0.50531871  0.64241246  0.00574013     0.35700
C3045       C  0.58713290  0.68879502  0.08017603    -0.21800
C3046       C  0.55980103  0.66497645  0.08014900    -0.21800
C3047       C  0.60309101  0.66735418  0.96779996    -0.21700
C3048       C  0.57540642  0.64406232  0.96806262    -0.21700
C3049       C  0.63538024  0.77133682  0.03026456    -0.22800
C3050       C  0.63747755  0.76810860  0.01025887    -0.22800
C3051       C  0.97326360  0.63282821  0.02833872    -0.22800
C3052       C  0.97671071  0.63151582  0.00829764    -0.22800
C3053       C  0.61018477  0.73311077  0.05647377    -0.18200
C3054       C  0.51230735  0.65034192  0.05674770    -0.18200
C3055       C  0.52040011  0.64131140  0.98698812    -0.18200
C3056       C  0.61792685  0.72146676  0.98691059    -0.18200
H3057       H  0.60476191  0.69357663  0.09222203     0.14800
H3058       H  0.55232989  0.64787646  0.09221032     0.14800
H3059       H  0.62338865  0.66806397  0.95683099     0.14800
H3060       H  0.57002082  0.62367613  0.95730356     0.14800
H3061       H  0.64640636  0.79263710  0.03894833     0.13000
H3062       H  0.65054714  0.78631724  0.00036758     0.13000
H3063       H  0.95011962  0.62608087  0.03665105     0.13000
H3064       H  0.95681555  0.62325194  0.99807059     0.13000
H3065       H  0.55312609  0.70174066  0.03744002     0.26300
H3066       H  0.55751331  0.69626512  0.00433736     0.26300
N3067       N  0.57037214  0.70283695  0.48346224    -0.36500
N3068       N  0.60941826  0.66354812  0.51301320    -0.57000
N3069       N  0.57507075  0.70654541  0.54326225    -0.36500
N3070       N  0.53243192  0.74202633  0.51391912    -0.57000
C3071       C  0.58533082  0.67724108  0.47227964     0.27100
C3072       C  0.54482013  0.71834844  0.47276331     0.27100
C3073       C  0.59196349  0.68221111  0.55441471     0.27100
C3074       C  0.55153884  0.72326961  0.55485511     0.27100
C3075       C  0.62551749  0.65030228  0.49703647     0.35700
C3076       C  0.62793677  0.65224401  0.52861076     0.35700
C3077       C  0.51906607  0.75871198  0.49814670     0.35700
C3078       C  0.52122808  0.76036592  0.52967428     0.35700
C3079       C  0.56932332  0.67686948  0.45412383    -0.21800
C3080       C  0.54391069  0.70277991  0.45441154    -0.21800
C3081       C  0.57959630  0.68421072  0.57343996    -0.21700
C3082       C  0.55430731  0.71004496  0.57372686    -0.21700
C3083       C  0.65425385  0.63012113  0.50254385    -0.22800
C3084       C  0.65568656  0.63123935  0.52257117    -0.22800
C3085       C  0.99757021  0.78595934  0.50439175    -0.22800
C3086       C  0.99872369  0.78670034  0.52440583    -0.22800
C3087       C  0.61382039  0.65494276  0.47761917    -0.18200
C3088       C  0.52298074  0.74700307  0.47869859    -0.18200
C3089       C  0.52803200  0.75069228  0.54920178    -0.18200
C3090       C  0.61890858  0.65874071  0.54827459    -0.18200
H3091       H  0.57530270  0.65970469  0.44187831     0.14800
H3092       H  0.52669042  0.70935669  0.44241714     0.14800
H3093       H  0.58787001  0.66871765  0.58595520     0.14800
H3094       H  0.53969223  0.71806318  0.58651006     0.14800
H3095       H  0.67217799  0.61585353  0.49314810     0.13000
H3096       H  0.67481069  0.61793797  0.53165636     0.13000
H3097       H  0.98399152  0.80488633  0.49515530     0.13000
H3098       H  0.98631182  0.80632769  0.53368798     0.13000
H3099       H  0.57824441  0.71054059  0.49723969     0.26300
H3100       H  0.58024312  0.71222366  0.52878646     0.26300
N3101       N  0.82013387  0.94987791  0.98584260    -0.36500
N3102       N  0.85650042  0.90888842  0.01612064    -0.57000
N3103       N  0.81244566  0.94373840  0.04529706    -0.36500
N3104       N  0.77957173  0.98789602  0.01514233    -0.57000
C3105       C  0.84264910  0.93099238  0.97471382     0.27100
C3106       C  0.80514358  0.97499611  0.97433904     0.27100
C3107       C  0.83602299  0.92734247  0.05698790     0.27100
C3108       C  0.79420183  0.96694189  0.05646103     0.27100
C3109       C  0.86793907  0.89064913  0.00039135     0.35700
C3110       C  0.86709955  0.89043969  0.03199924     0.35700
C3111       C  0.76590261  0.00366319  0.99916007     0.35700
C3112       C  0.76029401  0.99885789  0.03047966     0.35700
C3113       C  0.84194514  0.94422522  0.95578304    -0.21800
C3114       C  0.81837417  0.97186708  0.95554290    -0.21800
C3115       C  0.83218391  0.93981464  0.07591919    -0.21700
C3116       C  0.80574202  0.96449105  0.07562294    -0.21700
C3117       C  0.88658810  0.86078264  0.00631989    -0.22800
C3118       C  0.88621462  0.86076747  0.02638286    -0.22800
C3119       C  0.74914786  0.52387525  0.00370607    -0.22800
C3120       C  0.74652446  0.52135115  0.02365618    -0.22800
C3121       C  0.86251738  0.90093343  0.98075300    -0.18200
C3122       C  0.77845437  0.99934767  0.97989527    -0.18200
C3123       C  0.76699859  0.98995378  0.05011570    -0.18200
C3124       C  0.85970132  0.89999413  0.05148597    -0.18200
H3125       H  0.85658061  0.93470755  0.94330885     0.14800
H3126       H  0.81138343  0.98735100  0.94278643     0.14800
H3127       H  0.84673029  0.93179613  0.08873348     0.14800
H3128       H  0.79626743  0.97900500  0.08819614     0.14800
H3129       H  0.89915243  0.84107958  0.99715269     0.13000
H3130       H  0.89818611  0.84093612  0.03574845     0.13000
H3131       H  0.73168123  0.53863762  0.99425627     0.13000
H3132       H  0.72672954  0.53383401  0.03263668     0.13000
H3133       H  0.81411401  0.94451859  0.00018135     0.26300
H3134       H  0.80782134  0.93820609  0.03078859     0.26300
C3135       C  0.93660623  0.81745160  0.84988115     0.03300
C3136       C  0.96007837  0.83920552  0.83945242    -0.12900
C3137       C  0.96204828  0.83710594  0.81902702     0.00800
C3138       C  0.94039876  0.81292958  0.80911886    -0.11400
C3139       C  0.91749850  0.79054748  0.81944569     0.03300
C3140       C  0.91617871  0.79246524  0.83984518    -0.10800
H3141       H  0.97521694  0.85914293  0.84715507     0.08900
H3142       H  0.94087335  0.81193831  0.79331548     0.06400
H3143       H  0.89712862  0.77671332  0.84780826     0.06200
C3144       C  0.95414710  0.58974284  0.84692363     0.03300
C3145       C  0.97574933  0.56641218  0.83610578    -0.12900
C3146       C  0.96758927  0.55778077  0.81671040     0.00800
C3147       C  0.93951908  0.57474522  0.80760216    -0.11400
C3148       C  0.91791206  0.59792660  0.81793197     0.03300
C3149       C  0.92441178  0.60423736  0.83771456    -0.10800
H3150       H  0.99861512  0.55453758  0.84273837     0.08900
H3151       H  0.93427938  0.56977535  0.79236575     0.06400
H3152       H  0.90584335  0.62003260  0.84589206     0.06200
C3153       C  0.68699832  0.57113679  0.85050100     0.03300
C3154       C  0.70756689  0.59480006  0.83946801    -0.12900
C3155       C  0.70502674  0.59539568  0.81902549     0.00800
C3156       C  0.68102883  0.57294548  0.80971813    -0.11400
C3157       C  0.65910629  0.55048639  0.82059976     0.03300
C3158       C  0.66175050  0.55009703  0.84102570    -0.10800
H3159       H  0.72759930  0.61040153  0.84665543     0.08900
H3160       H  0.67969204  0.57259023  0.79392005     0.06400
H3161       H  0.64623138  0.53137906  0.84945027     0.06200
C3162       C  0.66721644  0.79902887  0.84978083     0.03300
C3163       C  0.64690591  0.82437890  0.83988552    -0.12900
C3164       C  0.65442359  0.83353206  0.82042524     0.00800
C3165       C  0.68210659  0.81615847  0.81070898    -0.11400
C3166       C  0.70180017  0.78959688  0.82022181     0.03300
C3167       C  0.69421447  0.78142918  0.83981539    -0.10800
H3168       H  0.62621417  0.83795137  0.84769631     0.08900
H3169       H  0.68802341  0.82296236  0.79568692     0.06400
H3170       H  0.70955033  0.76164838  0.84754143     0.06200
C3171       C  0.67254657  0.58381891  0.68327955     0.03300
C3172       C  0.69788603  0.60415436  0.69289507    -0.12900
C3173       C  0.70412110  0.59921513  0.71284282     0.00800
C3174       C  0.68485068  0.57351862  0.72318210    -0.11400
C3175       C  0.65893831  0.55318627  0.71388395     0.03300
C3176       C  0.65259995  0.55878310  0.69384987    -0.10800
H3177       H  0.71308123  0.62341761  0.68466146     0.08900
H3178       H  0.68985510  0.56971702  0.73859302     0.06400
H3179       H  0.63300204  0.54310609  0.68636117     0.06200
C3180       C  0.93285890  0.56800424  0.68159237     0.03300
C3181       C  0.95867537  0.54858786  0.69156620    -0.12900
C3182       C  0.96231219  0.55186724  0.71184587     0.00800
C3183       C  0.94007466  0.57511183  0.72210152    -0.11400
C3184       C  0.91536752  0.59603035  0.71214124     0.03300
C3185       C  0.91218753  0.59266229  0.69180743    -0.10800
H3186       H  0.97408197  0.52901188  0.68372030     0.08900
H3187       H  0.94188777  0.57680409  0.73785767     0.06400
H3188       H  0.89177062  0.60702841  0.68415767     0.06200
C3189       C  0.89190987  0.76860967  0.80885697     0.42600
N3190       N  0.84907483  0.75686644  0.78982459     0.01500
C3191       C  0.74590797  0.60559997  0.78884222    -0.06400
H3192       H  0.87802552  0.58148578  0.78032483     0.07000
C3193       C  0.87430944  0.65191291  0.71655647    -0.06700
Co3194     Co  0.81006018  0.69158457  0.80217771     0.74200
N3195       N  0.84747738  0.62839926  0.78637535    -0.25900
Co3196     Co  0.81036135  0.63011004  0.76439018     0.74100
C3197       C  0.89071019  0.61876958  0.72311885     0.42700
N3198       N  0.84923652  0.73842609  0.73201442     0.01100
N3199       N  0.84933044  0.63261683  0.74290869     0.01200
N3200       N  0.74763700  0.64515878  0.81375976    -0.46800
H3201       H  0.87989314  0.71987490  0.82836694     0.07000
N3202       N  0.84744350  0.65155441  0.80085367     0.01500
N3203       N  0.77287142  0.63294409  0.74252100     0.01200
C3204       C  0.73148122  0.61995432  0.72281113     0.42800
N3205       N  0.84888863  0.76165210  0.74647800    -0.25400
C3206       C  0.74710905  0.73711820  0.81608609    -0.06300
N3207       N  0.87457580  0.78005311  0.79288690    -0.46500
N3208       N  0.74816547  0.60906434  0.73909506    -0.46700
C3209       C  0.73032923  0.77032682  0.80996538     0.42600
N3210       N  0.77179082  0.65224592  0.80045044     0.01500
N3211       N  0.77298734  0.76123362  0.74647221    -0.25400
N3212       N  0.84845282  0.73096361  0.80292351    -0.25900
N3213       N  0.77334346  0.73825375  0.73187458     0.01100
H3214       H  0.74050522  0.80652985  0.75315893     0.07000
H3215       H  0.74308462  0.66922898  0.70356893     0.07000
N3216       N  0.77172490  0.62916710  0.78590728    -0.25900
N3217       N  0.84923129  0.65848052  0.72976520    -0.25500
N3218       N  0.77223023  0.75792404  0.79012449     0.01500
C3219       C  0.88844386  0.61508167  0.80788953     0.42900
C3220       C  0.87406572  0.78585956  0.74339378    -0.06800
N3221       N  0.77351773  0.65881933  0.72942635    -0.25500
H3222       H  0.87953244  0.66767092  0.70362818     0.07000
N3223       N  0.87149687  0.64447570  0.81417004    -0.46800
H3224       H  0.87901864  0.80897478  0.75240594     0.07000
C3225       C  0.73033389  0.77283468  0.72561819     0.42700
C3226       C  0.87440462  0.73625374  0.81571107    -0.06300
Co3227     Co  0.81076445  0.76020579  0.76826127     0.73800
N3228       N  0.87329943  0.74584031  0.71868525    -0.46500
C3229       C  0.72996030  0.61636562  0.80728394     0.43000
N3230       N  0.74735821  0.78178116  0.79377161    -0.46500
Co3231     Co  0.81139386  0.69859424  0.73037738     0.73900
C3232       C  0.74831131  0.65291265  0.71627767    -0.06800
C3233       C  0.87264208  0.60434333  0.78946558    -0.06400
N3234       N  0.77253178  0.73166753  0.80299516    -0.25900
N3235       N  0.87363282  0.60819701  0.73941257    -0.46700
H3236       H  0.74053142  0.58254302  0.77985429     0.07000
C3237       C  0.74661076  0.78411284  0.74383186    -0.06800
Cl3238     Cl  0.81066234  0.69512957  0.76629507    -0.49800
C3239       C  0.89017442  0.77533066  0.72495051     0.42700
H3240       H  0.74168255  0.72020904  0.82854065     0.07000
N3241       N  0.74843152  0.74448331  0.71889599    -0.46500
C3242       C  0.94846098  0.80685813  0.68352596     0.03300
C3243       C  0.92253179  0.78824988  0.69388964    -0.12900
C3244       C  0.91734965  0.79478151  0.71388205     0.00800
C3245       C  0.93814700  0.82033879  0.72331136    -0.11400
C3246       C  0.96449712  0.83862857  0.71315889     0.03300
C3247       C  0.96965024  0.83157962  0.69329019    -0.10800
H3248       H  0.90653273  0.76878765  0.68637564     0.08900
H3249       H  0.93435850  0.82556198  0.73870276     0.06400
H3250       H  0.98962775  0.84582238  0.68520944     0.06200
C3251       C  0.67325489  0.81079716  0.68546516     0.03300
C3252       C  0.69838831  0.78965628  0.69502548    -0.12900
C3253       C  0.70130504  0.79071048  0.71545979     0.00800
C3254       C  0.67858605  0.81236240  0.72622958    -0.11400
C3255       C  0.65340562  0.83331345  0.71689239     0.03300
C3256       C  0.64995147  0.83138825  0.69660726    -0.10800
H3257       H  0.71749551  0.77499897  0.68654520     0.08900
H3258       H  0.68124546  0.81378499  0.74193160     0.06400
H3259       H  0.63132212  0.84856067  0.68925441     0.06200
C3260       C  0.63435121  0.86218544  0.81056634     0.42600
N3261       N  0.62236621  0.90588282  0.79134625     0.01500
C3262       C  0.97548462  0.51240303  0.78802921    -0.06400
H3263       H  0.95145980  0.87449490  0.78017225     0.07000
C3264       C  0.51902570  0.88355468  0.71761911    -0.06700
Co3265     Co  0.55885173  0.94608020  0.80379355     0.74200
N3266       N  0.49695847  0.90792270  0.78740036    -0.25900
Co3267     Co  0.99882345  0.94509633  0.76531563     0.74100
C3268       C  0.98594902  0.86552191  0.72331749     0.42700
N3269       N  0.60259042  0.90665691  0.73362435     0.01100
N3270       N  0.50015328  0.90854602  0.74404342     0.01200
N3271       N  0.51358855  0.50766208  0.81460573    -0.46800
H3272       H  0.58626026  0.87422939  0.82986893     0.07000
N3273       N  0.51928147  0.90765605  0.80206204     0.01500
N3274       N  0.00170968  0.98475301  0.74382828     0.01200
C3275       C  0.98607031  0.52786337  0.72262035     0.42800
N3276       N  0.62517655  0.90601826  0.74813531    -0.25400
C3277       C  0.60485963  0.50725585  0.81721602    -0.06300
N3278       N  0.64525835  0.87995703  0.79450634    -0.46500
N3279       N  0.97660209  0.51058488  0.73907173    -0.46700
C3280       C  0.63683999  0.52451900  0.81034257     0.42600
N3281       N  0.52082764  0.98588290  0.80205510     0.01500
N3282       N  0.62725470  0.98407854  0.74782778    -0.25400
N3283       N  0.59710389  0.90644926  0.80445534    -0.25900
N3284       N  0.60433318  0.98461251  0.73347729     0.01100
H3285       H  0.67282344  0.51409909  0.75251971     0.07000
H3286       H  0.53248113  0.51341402  0.70376440     0.07000
N3287       N  0.99830074  0.98343525  0.78712696    -0.25900
N3288       N  0.52541580  0.90878748  0.73095777    -0.25500
N3289       N  0.62363527  0.98398948  0.79113209     0.01500
C3290       C  0.48471438  0.86377493  0.80792757     0.42900
C3291       C  0.64639823  0.87797057  0.74586801    -0.06800
N3292       N  0.52660813  0.98619570  0.73121025    -0.25500
H3293       H  0.53479072  0.87827995  0.70484263     0.07000
N3294       N  0.51257274  0.88193433  0.81486140    -0.46800
H3295       H  0.66811895  0.87126111  0.75525297     0.07000
C3296       C  0.63965269  0.52556056  0.72511850     0.42700
C3297       C  0.60239049  0.87984569  0.81726527    -0.06300
Co3298     Co  0.62535878  0.94500897  0.76960961     0.73800
N3299       N  0.60757692  0.88037903  0.72102436    -0.46500
C3300       C  0.98662151  0.52969860  0.80605326     0.43000
N3301       N  0.64659159  0.50778755  0.79379374    -0.46500
Co3302     Co  0.56491788  0.94661636  0.73191012     0.73900
C3303       C  0.51774795  0.50835752  0.71696153    -0.06800
C3304       C  0.97377428  0.87956115  0.78941573    -0.06400
N3305       N  0.59880740  0.98412669  0.80451909    -0.25900
N3306       N  0.97614799  0.88240212  0.73981990    -0.46700
H3307       H  0.95373495  0.51833855  0.77852364     0.07000
C3308       C  0.65012243  0.50903348  0.74358030    -0.06800
Cl3309     Cl  0.56192039  0.94625819  0.76783051    -0.49800
C3310       C  0.63451679  0.86087081  0.72796724     0.42700
H3311       H  0.58982362  0.51215845  0.83031097     0.07000
N3312       N  0.61077924  0.50815567  0.71897793    -0.46500
C3313       C  0.69657417  0.56353368  0.87108046    -0.19700
C3314       C  0.70819865  0.52917246  0.87636158     0.36500
C3315       C  0.71987907  0.52259748  0.89533341    -0.25700
C3316       C  0.71988542  0.54950914  0.90955104     0.02900
C3317       C  0.70822210  0.58415447  0.90439212     0.27700
C3318       C  0.69701992  0.59091247  0.88508721    -0.24800
N3319       N  0.70951351  0.50108002  0.86221637    -0.82200
H3320       H  0.72977962  0.49623582  0.89885584     0.13500
C3321       C  0.73371668  0.54045373  0.92930714     0.02900
N3322       N  0.70777549  0.61218213  0.91868707    -0.80800
H3323       H  0.68854892  0.61748859  0.88094478     0.18400
C3324       C  0.76136496  0.56037726  0.93727432    -0.25600
C3325       C  0.77908623  0.54871611  0.95408273     0.36400
C3326       C  0.76068771  0.01943823  0.96404637    -0.19700
C3327       C  0.72871646  0.00608659  0.95734383    -0.24900
C3328       C  0.71338830  0.01952427  0.94029925     0.27800
H3329       H  0.77040155  0.58426947  0.92987847     0.13500
N3330       N  0.80758560  0.56995327  0.96123795    -0.82200
H3331       H  0.71653914  0.98396141  0.96498753     0.18400
N3332       N  0.68122793  0.00474996  0.93314340    -0.80800
H3333       H  0.79732136  0.59460891  0.96552278     0.34000
H3334       H  0.81874709  0.55862614  0.97368354     0.38500
H3335       H  0.67210006  0.98474419  0.94252407     0.34000
H3336       H  0.66256323  0.02513961  0.93332082     0.30700
H3337       H  0.69867052  0.63599851  0.91251584     0.34000
H3338       H  0.68534076  0.10843437  0.92837730     0.30700
H3339       H  0.69425767  0.47987933  0.86735761     0.38500
H3340       H  0.73533634  0.49220331  0.86115396     0.34000
C3341       C  0.92898596  0.82479482  0.87064789    -0.19700
C3342       C  0.93128479  0.79795337  0.88504130     0.36500
C3343       C  0.92164641  0.80563997  0.90436456    -0.25700
C3344       C  0.90894467  0.83953831  0.90931928     0.02900
C3345       C  0.90581770  0.86619545  0.89488200     0.27700
C3346       C  0.91637789  0.85872392  0.87572118    -0.24800
N3347       N  0.94346496  0.76298346  0.88006427    -0.82200
H3348       H  0.92381855  0.78511468  0.91547656     0.13500
C3349       C  0.89924850  0.84770370  0.92966444     0.02900
N3350       N  0.89175379  0.90066073  0.89980170    -0.80800
H3351       H  0.91378033  0.87908557  0.86454447     0.18400
C3352       C  0.92266261  0.86812505  0.94070462    -0.25600
C3353       C  0.91237721  0.88396971  0.95826845     0.36400
C3354       C  0.87785108  0.87871008  0.96504206    -0.19700
C3355       C  0.85528130  0.85608312  0.95473719    -0.24900
C3356       C  0.86534977  0.84080263  0.93698880     0.27800
H3357       H  0.94851554  0.87367492  0.93498058     0.13500
N3358       N  0.93682087  0.90695478  0.96802119    -0.82200
H3359       H  0.82877416  0.85219820  0.95991066     0.18400
N3360       N  0.84000835  0.82005987  0.92646996    -0.80800
H3361       H  0.95794242  0.89118615  0.97241846     0.34000
H3362       H  0.92626003  0.91795679  0.98069076     0.38500
H3363       H  0.81963727  0.83719166  0.92249059     0.34000
H3364       H  0.85028491  0.80966617  0.91357379     0.30700
H3365       H  0.89134729  0.91733209  0.88754074     0.34000
H3366       H  0.86573374  0.89698479  0.90401113     0.30700
H3367       H  0.96529055  0.75726783  0.88867316     0.38500
H3368       H  0.92381945  0.74475175  0.88371014     0.34000
C3369       C  0.66754369  0.58904029  0.66207182    -0.19700
C3370       C  0.69344023  0.57836637  0.64859088     0.36500
C3371       C  0.68916869  0.58634274  0.62866292    -0.25700
C3372       C  0.65978842  0.60515490  0.62215162     0.02900
C3373       C  0.63422240  0.61637412  0.63565326     0.27700
C3374       C  0.63811106  0.60772586  0.65549677    -0.24800
N3375       N  0.72412652  0.55994616  0.65528114    -0.82200
H3376       H  0.70885361  0.57820176  0.61820122     0.13500
C3377       C  0.65603353  0.61401629  0.60123264     0.02900
N3378       N  0.60475927  0.63701377  0.62913552    -0.80800
H3379       H  0.61875317  0.61656764  0.66597825     0.18400
C3380       C  0.63221436  0.59458307  0.58996912    -0.25600
C3381       C  0.62249717  0.60634112  0.57134362     0.36400
C3382       C  0.63698248  0.63841561  0.56391079    -0.19700
C3383       C  0.66313650  0.65604217  0.57448829    -0.24900
C3384       C  0.67271045  0.64421874  0.59320613     0.27800
H3385       H  0.61965264  0.57118268  0.59613642     0.13500
N3386       N  0.59638364  0.58638759  0.56097243    -0.82200
H3387       H  0.67390355  0.68074547  0.56880387     0.18400
N3388       N  0.69780865  0.66380108  0.60451297    -0.80800
H3389       H  0.57295819  0.58856517  0.56873781     0.34000
H3390       H  0.59192828  0.59683886  0.54706949     0.38500
H3391       H  0.70772914  0.68527288  0.59644312     0.34000
H3392       H  0.68472821  0.67479916  0.61647912     0.30700
H3393       H  0.58837188  0.64318075  0.64087067     0.34000
H3394       H  0.61424462  0.66134753  0.62379095     0.30700
H3395       H  0.74047140  0.06681583  0.64429169     0.38500
H3396       H  0.72066478  0.04539521  0.66275326     0.34000
C3397       C  0.50797418  0.76838932  0.56504821    -0.19700
C3398       C  0.52139884  0.79841424  0.57502629     0.36500
C3399       C  0.00795520  0.80422877  0.59405782    -0.25700
C3400       C  0.97853563  0.78669917  0.60170591     0.02900
C3401       C  0.96068434  0.76145798  0.59019458     0.27700
C3402       C  0.97463534  0.75182107  0.57198790    -0.24800
N3403       N  0.55036295  0.81894720  0.56771429    -0.82200
H3404       H  0.02129814  0.82414372  0.60275258     0.13500
C3405       C  0.97007656  0.79126813  0.62265613     0.02900
N3406       N  0.92982831  0.74412844  0.59753787    -0.80800
H3407       H  0.96248012  0.73065394  0.56364481     0.18400
C3408       C  0.93715945  0.80395620  0.62843191    -0.25600
C3409       C  0.92902780  0.80839759  0.64832676     0.36400
C3410       C  0.95447706  0.80019194  0.66253557    -0.19700
C3411       C  0.98708377  0.78700105  0.65671982    -0.24900
C3412       C  0.99497899  0.78192935  0.63695424     0.27800
H3413       H  0.91801833  0.81073824  0.61739785     0.13500
N3414       N  0.89537662  0.82168845  0.65414645    -0.82200
H3415       H  0.00638438  0.78045496  0.66771622     0.18400
N3416       N  0.53336789  0.77530106  0.63131063    -0.80800
H3417       H  0.87964973  0.82621556  0.64192679     0.34000
H3418       H  0.89918140  0.84650605  0.66077461     0.38500
H3419       H  0.54956311  0.77259367  0.64349468     0.34000
H3420       H  0.53121225  0.74991211  0.62509787     0.30700
H3421       H  0.91985602  0.72636016  0.58720245     0.34000
H3422       H  0.93709754  0.72876385  0.60962935     0.30700
H3423       H  0.55855615  0.80989863  0.55406689     0.38500
H3424       H  0.54157043  0.84511803  0.56560387     0.34000
C3425       C  0.63062600  0.74102842  0.96951666    -0.19700
C3426       C  0.60909756  0.76706278  0.96087733     0.36500
C3427       C  0.61654313  0.77941874  0.94201998    -0.25700
C3428       C  0.64444755  0.76504539  0.93130322     0.02900
C3429       C  0.66671622  0.73964103  0.94021183     0.27700
C3430       C  0.66008453  0.72862903  0.95948603    -0.24800
N3431       N  0.57854066  0.77948194  0.97087178    -0.82200
H3432       H  0.59955826  0.79916829  0.93539743     0.13500
C3433       C  0.64912451  0.77540579  0.91051582     0.02900
N3434       N  0.69472627  0.72366442  0.92929555    -0.80800
H3435       H  0.67615365  0.70810819  0.96612458     0.18400
C3436       C  0.68148991  0.78881645  0.90431547    -0.25600
C3437       C  0.68763461  0.79683981  0.88462759     0.36400
C3438       C  0.66097554  0.79169742  0.87077925    -0.19700
C3439       C  0.62814338  0.77947006  0.87701451    -0.24900
C3440       C  0.62199453  0.77092740  0.89674425     0.27800
H3441       H  0.70221340  0.79291634  0.91482817     0.13500
N3442       N  0.72086645  0.81078431  0.87876295    -0.82200
H3443       H  0.60758592  0.77571679  0.86636574     0.18400
N3444       N  0.58862719  0.75707785  0.90276779    -0.80800
H3445       H  0.72535594  0.83432808  0.88654128     0.34000
H3446       H  0.74005616  0.79228937  0.88274963     0.38500
H3447       H  0.57156376  0.75557303  0.89090160     0.34000
H3448       H  0.59246623  0.73090973  0.90769052     0.30700
H3449       H  0.70839092  0.70532368  0.93792269     0.34000
H3450       H  0.68356877  0.70907018  0.91790578     0.30700
H3451       H  0.58032891  0.80723752  0.97217891     0.38500
H3452       H  0.55678831  0.77364115  0.96224305     0.34000
C3453       C  0.49989546  0.63228015  0.96917416    -0.19700
C3454       C  0.99372320  0.60027576  0.96239750     0.36500
C3455       C  0.98087304  0.59459699  0.94347736    -0.25700
C3456       C  0.98504876  0.62038683  0.92861598     0.02900
C3457       C  0.99896348  0.65417098  0.93359473     0.27700
C3458       C  0.49900603  0.65854624  0.95451782    -0.24800
N3459       N  0.99511494  0.57021888  0.97546403    -0.82200
H3460       H  0.96944925  0.56888865  0.94011923     0.13500
C3461       C  0.97624642  0.61145657  0.90790139     0.02900
N3462       N  0.49637371  0.67609143  0.92010192    -0.80800
H3463       H  0.50894396  0.68501848  0.95772254     0.18400
C3464       C  0.95945694  0.63709377  0.89620798    -0.25600
C3465       C  0.95441703  0.63174834  0.87615610     0.36400
C3466       C  0.96189091  0.59794466  0.86787456    -0.19700
C3467       C  0.97707171  0.57155809  0.87983786    -0.24900
C3468       C  0.98584074  0.57846732  0.89938049     0.27800
H3469       H  0.95120482  0.66214383  0.90258970     0.13500
N3470       N  0.94292527  0.66105315  0.86416503    -0.82200
H3471       H  0.98268260  0.54540172  0.87392928     0.18400
N3472       N  0.00511822  0.55232022  0.91038039    -0.80800
H3473       H  0.93884096  0.68396989  0.87253486     0.34000
H3474       H  0.96311626  0.66706545  0.85440749     0.38500
H3475       H  0.00995925  0.52954919  0.90199621     0.34000
H3476       H  0.52112842  0.55808260  0.91665750     0.30700
H3477       H  0.50601698  0.69998164  0.92585068     0.34000
H3478       H  0.02643452  0.66969396  0.90989229     0.30700
H3479       H  0.00829616  0.57616791  0.98834496     0.38500
H3480       H  0.96946644  0.56342655  0.97916716     0.34000
C3481       C  0.85965525  0.00669451  0.57008116    -0.19700
C3482       C  0.84832440  0.53288476  0.57754465     0.36500
C3483       C  0.86470115  0.54638665  0.59427978    -0.25700
C3484       C  0.89143346  0.52724865  0.60363154     0.02900
C3485       C  0.90354906  0.49504649  0.59538114     0.27700
C3486       C  0.88887791  0.98921987  0.57787216    -0.24800
N3487       N  0.82059959  0.55338624  0.56887606    -0.82200
H3488       H  0.85538211  0.57118402  0.60054115     0.13500
C3489       C  0.90339551  0.53851961  0.62327556     0.02900
N3490       N  0.93199259  0.47600392  0.60429292    -0.80800
H3491       H  0.89821701  0.96495460  0.57102506     0.18400
C3492       C  0.89815088  0.51493089  0.63893183    -0.25600
C3493       C  0.90783006  0.52418723  0.65796343     0.36400
C3494       C  0.92323265  0.55777638  0.66146252    -0.19700
C3495       C  0.92822906  0.58169930  0.64589831    -0.24900
C3496       C  0.91864496  0.57225402  0.62672343     0.27800
H3497       H  0.88920610  0.99106161  0.63632842     0.13500
N3498       N  0.90160291  0.49982521  0.67385687    -0.82200
H3499       H  0.93984590  0.60756273  0.64871945     0.18400
N3500       N  0.92449270  0.59653513  0.61077581    -0.80800
H3501       H  0.89632880  0.97556261  0.66842471     0.34000
H3502       H  0.88329000  0.51165058  0.68315184     0.38500
H3503       H  0.93591361  0.62016763  0.61577572     0.34000
H3504       H  0.94259177  0.58465184  0.60137358     0.30700
H3505       H  0.93755110  0.45265251  0.59654428     0.34000
H3506       H  0.95416949  0.49219682  0.60327216     0.30700
H3507       H  0.81015439  0.04829423  0.55778414     0.38500
H3508       H  0.80002564  0.55433981  0.57890877     0.34000
C3509       C  0.67657473  0.81845518  0.66430651    -0.19700
C3510       C  0.67824018  0.79139431  0.65002160     0.36500
C3511       C  0.68481670  0.80090715  0.63042290    -0.25700
C3512       C  0.68986150  0.83683137  0.62507341     0.02900
C3513       C  0.68777147  0.86371590  0.63935397     0.27700
C3514       C  0.68075335  0.85429076  0.65869995    -0.24800
N3515       N  0.67373360  0.75459326  0.65549936    -0.82200
H3516       H  0.68686935  0.78033934  0.61938281     0.13500
C3517       C  0.70133272  0.84647298  0.60510887     0.02900
N3518       N  0.69434551  0.90042827  0.63426560    -0.80800
H3519       H  0.68025700  0.87503705  0.66969844     0.18400
C3520       C  0.68083361  0.87001273  0.59395462    -0.25600
C3521       C  0.69451141  0.88664760  0.57718370     0.36400
C3522       C  0.72899346  0.87888330  0.57138022    -0.19700
C3523       C  0.74866382  0.85376559  0.58183832    -0.24900
C3524       C  0.73535585  0.83779179  0.59882865     0.27800
H3525       H  0.65490258  0.87698360  0.59903875     0.13500
N3526       N  0.67443554  0.91286270  0.56672351    -0.82200
H3527       H  0.77519027  0.84809824  0.57725611     0.18400
N3528       N  0.75692274  0.81440308  0.61033284    -0.80800
H3529       H  0.64995942  0.91624888  0.57325104     0.34000
H3530       H  0.66984211  0.90289423  0.55273157     0.38500
H3531       H  0.78122974  0.81075964  0.60365511     0.34000
H3532       H  0.76175817  0.82706178  0.62364206     0.30700
H3533       H  0.69166025  0.91692478  0.64646432     0.34000
H3534       H  0.72042162  0.90239571  0.62982832     0.30700
H3535       H  0.64825566  0.75164458  0.66076864     0.38500
H3536       H  0.67588998  0.73807306  0.64327387     0.34000
C3537       C  0.74694359  0.00862327  0.06547850    -0.19700
C3538       C  0.71773118  0.99251470  0.07456667     0.36500
C3539       C  0.70663378  0.00529609  0.09270061    -0.25700
C3540       C  0.73234906  0.52753112  0.10139671     0.02900
C3541       C  0.75826792  0.54851644  0.09222757     0.27700
C3542       C  0.77149780  0.53798041  0.07403019    -0.24800
N3543       N  0.69995750  0.96227212  0.06633802    -0.82200
H3544       H  0.68583598  0.99140302  0.10032454     0.13500
C3545       C  0.72407805  0.53245546  0.12235400     0.02900
N3546       N  0.77227809  0.57930336  0.10196129    -0.80800
H3547       H  0.79307273  0.55252216  0.06753666     0.18400
C3548       C  0.75158706  0.53040565  0.13579016    -0.25600
C3549       C  0.74552977  0.53296444  0.15589235     0.36400
C3550       C  0.71108376  0.53784191  0.16278483    -0.19700
C3551       C  0.68339912  0.53951982  0.14935103    -0.24900
C3552       C  0.68957314  0.53690002  0.12914919     0.27800
H3553       H  0.77795307  0.52598973  0.13054076     0.13500
N3554       N  0.77417444  0.52994160  0.16934963    -0.82200
H3555       H  0.65699062  0.54341481  0.15463810     0.18400
N3556       N  0.66110999  0.53888412  0.11553760    -0.80800
H3557       H  0.79780593  0.52669445  0.16189201     0.34000
H3558       H  0.77032186  0.50672386  0.17758454     0.38500
H3559       H  0.63739367  0.54209973  0.12291147     0.34000
H3560       H  0.66470953  0.56183566  0.10704503     0.30700
H3561       H  0.79157741  0.59144777  0.09341456     0.34000
H3562       H  0.75204387  0.59786688  0.10340775     0.30700
H3563       H  0.70992317  0.95567686  0.05262911     0.38500
H3564       H  0.70436172  0.94036262  0.07550225     0.34000
C3565       C  0.68043002  0.55696332  0.37194432    -0.19700
C3566       C  0.70532861  0.55357952  0.38699510     0.36500
C3567       C  0.69703601  0.56585495  0.40587671    -0.25700
C3568       C  0.66432187  0.58114909  0.40979809     0.02900
C3569       C  0.63901576  0.58318321  0.39494630     0.27700
C3570       C  0.64727050  0.57091855  0.37618566    -0.24800
N3571       N  0.73894707  0.53820840  0.38293003    -0.82200
H3572       H  0.71629950  0.56433796  0.41741283     0.13500
C3573       C  0.65717530  0.59786824  0.42891030     0.02900
N3574       N  0.60558373  0.59923386  0.39882088    -0.80800
H3575       H  0.62826899  0.57370839  0.36457477     0.18400
C3576       C  0.66299487  0.63463914  0.43086642    -0.25600
C3577       C  0.65050234  0.65320061  0.44717093     0.36400
C3578       C  0.63173324  0.63483243  0.46174123    -0.19700
C3579       C  0.62762865  0.59762172  0.46034789    -0.24900
C3580       C  0.64028340  0.57887348  0.44399898     0.27800
H3581       H  0.67596041  0.64925756  0.41926263     0.13500
N3582       N  0.65583863  0.69097112  0.44864621    -0.82200
H3583       H  0.61338802  0.58351030  0.47165839     0.18400
N3584       N  0.63548085  0.54089785  0.44244424    -0.80800
H3585       H  0.64468952  0.70311335  0.43639032     0.34000
H3586       H  0.68271916  0.69582241  0.44829060     0.38500
H3587       H  0.62290665  0.53094446  0.45487157     0.34000
H3588       H  0.61880618  0.53607295  0.43068481     0.30700
H3589       H  0.59022415  0.59949062  0.38622155     0.34000
H3590       H  0.59255445  0.58309518  0.40894574     0.30700
H3591       H  0.73493058  0.51160905  0.37888598     0.38500
H3592       H  0.75425370  0.53767071  0.39554900     0.34000
C3593       C  0.91725343  0.52827557  0.37085976    -0.19700
C3594       C  0.94362208  0.53339855  0.38498901     0.36500
C3595       C  0.93638210  0.52616899  0.40476714    -0.25700
C3596       C  0.90316469  0.51461588  0.41061128     0.02900
C3597       C  0.87671630  0.50989083  0.39655794     0.27700
C3598       C  0.88396496  0.51697029  0.37681774    -0.24800
N3599       N  0.97737951  0.54650802  0.37920786    -0.82200
H3600       H  0.95648656  0.52989860  0.41568255     0.13500
C3601       C  0.89579572  0.50713580  0.43143714     0.02900
N3602       N  0.83880107  0.00379641  0.40092295    -0.80800
H3603       H  0.86374070  0.51319692  0.36597302     0.18400
C3604       C  0.87464517  0.53093436  0.44190266    -0.25600
C3605       C  0.86076448  0.52155702  0.46014140     0.36400
C3606       C  0.86384152  0.99865802  0.46752161    -0.19700
C3607       C  0.88912092  0.97692394  0.45864793    -0.24900
C3608       C  0.90566799  0.47441101  0.43999217     0.27800
H3609       H  0.86735896  0.55624814  0.43535961     0.13500
N3610       N  0.83790812  0.54652788  0.46967634    -0.82200
H3611       H  0.89644940  0.95201729  0.46562583     0.18400
N3612       N  0.92831416  0.45033479  0.42966539    -0.80800
H3613       H  0.81565059  0.54940642  0.46099688     0.34000
H3614       H  0.82037358  0.04615132  0.48050059     0.38500
H3615       H  0.93215118  0.93951841  0.43954368     0.34000
H3616       H  0.91510956  0.44178846  0.41718010     0.30700
H3617       H  0.82300409  0.00005625  0.38866588     0.33600
H3618       H  0.84099901  0.97889185  0.40775830     0.30700
H3619       H  0.97395191  0.57229908  0.37363084     0.38500
H3620       H  0.99375483  0.54889263  0.39132932     0.34000
C3621       C  0.62902449  0.75240793  0.07204143    -0.19700
C3622       C  0.66258357  0.74141481  0.07785107     0.36500
C3623       C  0.67725142  0.75598500  0.09478372    -0.25700
C3624       C  0.65858276  0.78060251  0.10615915     0.02900
C3625       C  0.62570659  0.79295737  0.09977196     0.27700
C3626       C  0.61132643  0.77884098  0.08260168    -0.24800
N3627       N  0.68046819  0.71377950  0.06727876    -0.82200
H3628       H  0.70245900  0.74657509  0.09981232     0.13500
C3629       C  0.67131090  0.78862580  0.12603522     0.02900
N3630       N  0.60634333  0.81827107  0.11124652    -0.80800
H3631       H  0.58543720  0.78694160  0.07799820     0.18400
C3632       C  0.67881228  0.82388845  0.13154568    -0.25600
C3633       C  0.68914537  0.83183568  0.15076343     0.36400
C3634       C  0.69223106  0.80383460  0.16451276    -0.19700
C3635       C  0.68537332  0.76860143  0.15875564    -0.24900
C3636       C  0.67444604  0.76076667  0.13979605     0.27800
H3637       H  0.67617871  0.84517058  0.12090232     0.13500
N3638       N  0.69609852  0.86807870  0.15643649    -0.82200
H3639       H  0.68674599  0.74722380  0.16942104     0.18400
N3640       N  0.66526002  0.72474643  0.13461563    -0.80800
H3641       H  0.69235008  0.88545038  0.14465138     0.34000
H3642       H  0.72249471  0.86970290  0.16020455     0.38500
H3643       H  0.66910101  0.70740080  0.14640123     0.34000
H3644       H  0.63851568  0.72435907  0.13154842     0.30700
H3645       H  0.58271639  0.82462455  0.10443686     0.34000
H3646       H  0.59994029  0.80593843  0.12448202     0.30700
H3647       H  0.68627360  0.72378545  0.05339817     0.38500
H3648       H  0.70436771  0.70782366  0.07389326     0.34000
C3649       C  0.49123643  0.63345318  0.07248575    -0.19700
C3650       C  0.97151835  0.65240549  0.08407589     0.36500
C3651       C  0.95895496  0.63584586  0.10107020    -0.25700
C3652       C  0.96572236  0.59968655  0.10485844     0.02900
C3653       C  0.47684856  0.57809773  0.08969313     0.27700
C3654       C  0.48864061  0.59600869  0.07288797    -0.24800
N3655       N  0.96416284  0.68971102  0.08117786    -0.82200
H3656       H  0.94519912  0.65170690  0.11183400     0.13500
C3657       C  0.95912811  0.58543207  0.12469147     0.02900
N3658       N  0.47539010  0.53974306  0.09029655    -0.80800
H3659       H  0.49790786  0.58069640  0.06051983     0.18400
C3660       C  0.92689622  0.56975171  0.12938443    -0.25600
C3661       C  0.92010849  0.55731044  0.14846150     0.36400
C3662       C  0.94616992  0.56057902  0.16289242    -0.19700
C3663       C  0.97857334  0.57558915  0.15798390    -0.24900
C3664       C  0.98522876  0.58831267  0.13907795     0.27800
H3665       H  0.90698977  0.56763553  0.11822932     0.13500
N3666       N  0.88691366  0.54170871  0.15331983    -0.82200
H3667       H  0.99830617  0.57860969  0.16918181     0.18400
N3668       N  0.52224062  0.59466625  0.13472639    -0.80800
H3669       H  0.89135030  0.51504838  0.15717506     0.34000
H3670       H  0.87058272  0.54138966  0.14110720     0.38500
H3671       H  0.53866450  0.59342268  0.14688525     0.34000
H3672       H  0.53304880  0.57771124  0.12422523     0.30700
H3673       H  0.48271381  0.52903139  0.07682146     0.34000
H3674       H  0.49386092  0.53095715  0.10045132     0.30700
H3675       H  0.97338220  0.69879197  0.06770985     0.38500
H3676       H  0.97739564  0.70397098  0.09197880     0.34000
C3677       C  0.73583813  0.86930248  0.46941208    -0.19700
C3678       C  0.70614960  0.88181681  0.45943119     0.36500
C3679       C  0.69645939  0.86552504  0.44183110    -0.25700
C3680       C  0.71589541  0.83694020  0.43427327     0.02900
C3681       C  0.74351549  0.82227987  0.44527453     0.27700
C3682       C  0.75341140  0.83881003  0.46277775    -0.24800
N3683       N  0.68786214  0.91276186  0.46644928    -0.82200
H3684       H  0.67526879  0.87669786  0.43331217     0.13500
C3685       C  0.71091460  0.82689150  0.41360734     0.02900
N3686       N  0.76231769  0.79177152  0.43809243    -0.80800
H3687       H  0.77604147  0.82921299  0.47069425     0.18400
C3688       C  0.73828476  0.83371795  0.40049907    -0.25600
C3689       C  0.73404825  0.82841536  0.38041486     0.36400
C3690       C  0.70186873  0.81567714  0.37332815    -0.19700
C3691       C  0.67447613  0.80849638  0.38642813    -0.24900
C3692       C  0.67878045  0.81385518  0.40660861     0.27800
H3693       H  0.76271578  0.84436549  0.40594044     0.13500
N3694       N  0.76196837  0.83673787  0.36709962    -0.82200
H3695       H  0.64983932  0.79858216  0.38087972     0.18400
N3696       N  0.65081062  0.80629184  0.42000891    -0.80800
H3697       H  0.78392912  0.84578341  0.37466853     0.34000
H3698       H  0.75365634  0.85793381  0.35828850     0.38500
H3699       H  0.62890620  0.79688661  0.41252007     0.34000
H3700       H  0.65905790  0.78553058  0.42914420     0.30700
H3701       H  0.78207091  0.78446521  0.44783655     0.34000
H3702       H  0.74480645  0.77036222  0.43759575     0.30700
H3703       H  0.67688308  0.90609633  0.47995165     0.38500
H3704       H  0.66711700  0.91915692  0.45717447     0.34000
C3705       C  0.91704567  0.83243343  0.16522781    -0.19700
C3706       C  0.94152461  0.82197150  0.15090755     0.36500
C3707       C  0.93486000  0.82966066  0.13115004    -0.25700
C3708       C  0.90443387  0.84784970  0.12556756     0.02900
C3709       C  0.88025655  0.85873632  0.13998362     0.27700
C3710       C  0.88665763  0.85054630  0.15965687    -0.24800
N3711       N  0.97236815  0.80251467  0.15641903    -0.82200
H3712       H  0.95322090  0.82117179  0.12004408     0.13500
C3713       C  0.89747488  0.85523556  0.10463900     0.02900
N3714       N  0.84936912  0.87821805  0.13454183    -0.80800
H3715       H  0.86806201  0.85858689  0.17074786     0.18400
C3716       C  0.86643240  0.84234167  0.09644448    -0.25600
C3717       C  0.85511413  0.85394084  0.07812775     0.36400
C3718       C  0.87550762  0.87892687  0.06761507    -0.19700
C3719       C  0.90821594  0.88924112  0.07492479    -0.24900
C3720       C  0.91947356  0.87759542  0.09343710     0.27800
H3721       H  0.84993620  0.82441889  0.10481317     0.13500
N3722       N  0.82205937  0.84113584  0.07108633    -0.82200
H3723       H  0.92373284  0.90841154  0.06680991     0.18400
N3724       N  0.95215754  0.88979365  0.10127735    -0.80800
H3725       H  0.80256622  0.85169840  0.08008281     0.34000
H3726       H  0.81696732  0.84990627  0.05690558     0.38500
H3727       H  0.96520067  0.90593154  0.09114632     0.34000
H3728       H  0.94664227  0.90590812  0.11333235     0.30700
H3729       H  0.83422833  0.88407103  0.14683403     0.34000
H3730       H  0.85734804  0.90269898  0.12865979     0.30700
H3731       H  0.98827695  0.81973468  0.16443657     0.38500
H3732       H  0.98675805  0.79534601  0.14405527     0.34000
C3733       C  0.93517499  0.80127834  0.37132101    -0.19700
C3734       C  0.93827338  0.76652546  0.37933660     0.36500
C3735       C  0.94409475  0.76256148  0.39939800    -0.25700
C3736       C  0.94810955  0.79244302  0.41142022     0.02900
C3737       C  0.94372722  0.82699819  0.40367794     0.27700
C3738       C  0.93718150  0.83110902  0.38365027    -0.24800
N3739       N  0.93760638  0.73551810  0.36697746    -0.82200
H3740       H  0.94814096  0.73610354  0.40546187     0.13500
C3741       C  0.96341852  0.78683839  0.43089525     0.02900
N3742       N  0.94710061  0.85765934  0.41610791    -0.80800
H3743       H  0.93455512  0.85768276  0.37751776     0.18400
C3744       C  0.49761243  0.80012677  0.43380272    -0.25600
C3745       C  0.51717059  0.78869560  0.44983693     0.36400
C3746       C  0.50185545  0.76485956  0.46340957    -0.19700
C3747       C  0.96471889  0.75511170  0.46176212    -0.24900
C3748       C  0.94605123  0.76665851  0.44529739     0.27800
H3749       H  0.51004482  0.81684145  0.42287808     0.13500
N3750       N  0.55261253  0.80101967  0.45153944    -0.82200
H3751       H  0.95207172  0.73823221  0.47252626     0.18400
N3752       N  0.91009327  0.75680752  0.44268053    -0.80800
H3753       H  0.56681620  0.79029283  0.43990081     0.34000
H3754       H  0.56439909  0.79202824  0.46435994     0.38500
H3755       H  0.90129175  0.74165802  0.45454750     0.34000
H3756       H  0.89537364  0.78033717  0.44259456     0.30700
H3757       H  0.94347366  0.88119765  0.40811459     0.34000
H3758       H  0.92689457  0.85653013  0.42637067     0.30700
H3759       H  0.95949301  0.73672151  0.35785691     0.38500
H3760       H  0.94006002  0.71211742  0.37523109     0.34000
loop_ 
_geom_bond_atom_site_label_1 
_geom_bond_atom_site_label_2 
_geom_bond_distance 
_geom_bond_site_symmetry_2 
_ccdc_geom_bond_type 
C1            C2   1.405       .  A
C1            C6   1.403       .  A
C1          C913   1.483       .  S
C2            C3   1.404       .  A
C2            H7   1.084       .  S
C3            C4   1.403       .  A
C3           C37   1.476       .  S
C4            C5   1.405       .  A
C4            H8   1.083       .  S
C5            C6   1.400       .  A
C5          C156   1.475       .  S
C6            H9   1.084       .  S
C10          C11   1.402       .  A
C10          C15   1.398       .  A
C10         C885   1.473       .  S
C11          C12   1.405       .  A
C11          H16   1.084       .  S
C12          C13   1.404       .  A
C12          C87   1.477       .  S
C13          C14   1.403       .  A
C13          H17   1.083       .  S
C14          C15   1.401       .  A
C14         C134   1.472       .  S
C15          H18   1.083       .  S
C19          C20   1.396       .  A
C19          C24   1.400       .  A
C19         C870   1.472       .  S
C20          C21   1.400       .  A
C20          H25   1.083       .  S
C21          C22   1.406       .  A
C21          C57   1.475       .  S
C22          C23   1.408       .  A
C22          H26   1.084       .  S
C23          C24   1.403       .  A
C23         C126   1.475       .  S
C24          H27   1.083       .  S
C28          C29   1.404       .  A
C28          C33   1.405       .  A
C28         C842   1.487       .  S
C29          C30   1.403       .  A
C29          H34   1.083       .  S
C30          C31   1.404       .  A
C30         C141   1.474       .  S
C31          C32   1.404       .  A
C31          H35   1.084       .  S
C32          C33   1.403       .  A
C32        C1925   1.475       .  S
C33          H36   1.084       .  S
C37        C1954   1.459       .  S
C37        N1935   1.351       .  A
N38          N55   1.324       .  A
N38          N60   1.319       .  A
N38         Co75   2.083       .  S
C39        C1017   1.457       .  S
C39          H84   1.082       .  S
C39        N1004   1.338   1_545  A
H40          C81   1.081   1_655  S
C41         C985   1.459   1_455  S
C41          H70   1.082   1_455  S
C41          N65   1.340       .  A
Co42         N60   2.078       .  S
Co42         N50   2.080       .  S
Co42         N82   2.081       .  S
Co42         N58   2.083       .  S
Co42        Cl86   2.463       .  S
N43        C1021   1.337       .  A
N43          N50   1.320       .  A
N43         Co44   2.087       .  S
Co44         N47   2.093       .  S
Co44         N64   2.088       .  S
Co44         N51   2.092       .  S
Co44        Cl86   2.434       .  S
C45        C1912   1.479       .  S
C45         C981   1.461   1_645  S
C45          N83   1.351   1_655  A
N46          N53   1.319       .  A
N46          N76   1.324       .  A
N46         Co79   2.077       .  S
N47          N65   1.320       .  A
N47        N1023   1.326       .  A
N48          C77   1.350       .  A
N48          N58   1.325       .  A
H49          C74   1.082   1_655  S
N50          N71   1.327       .  A
N51          N69   1.320       .  A
N51          N56   1.324       .  A
C52          C80   1.457       .  S
C52        C1061   1.474       .  S
C52          N56   1.352       .  A
N53          C68   1.338       .  A
N53         Co75   2.078       .  S
C54          C57   1.461       .  S
C54          H88   1.081       .  S
C54          N82   1.338       .  A
N55        C1917   1.349   1_455  A
C57          N78   1.349       .  A
N58          N64   1.321       .  A
N59          C85   1.337       .  A
N59          N61   1.320       .  A
N59         Co75   2.078       .  S
N60          C74   1.339       .  A
N61          N89   1.326       .  A
N61         Co79   2.086       .  S
H62          C85   1.081       .  S
H63          C80   1.081       .  S
N64         C979   1.340       .  A
N65         Co79   2.080       .  S
N66          N78   1.326       .  A
N66          N82   1.319       .  A
N66         Co75   2.083       .  S
C67          C81   1.463   1_655  S
C67         C103   1.480       .  S
C67        N1011   1.350   1_645  A
C68        C1967   1.460   1_455  S
C68        H1952   1.081   1_455  S
N69          C80   1.340       .  A
N69         Co79   2.073       .  S
N71        C1007   1.350   1_455  A
H72        C1948   1.081       .  S
C73          C85   1.457       .  S
C73          C92   1.472       .  S
C73          N89   1.351       .  A
C74        C1917   1.458   1_455  S
Co75        Cl86   2.438       .  S
N76        C1967   1.350   1_455  A
C77         C979   1.460       .  S
C77        C1052   1.473       .  S
Co79        Cl86   2.465       .  S
C81         N983   1.338   1_545  A
N83         N987   1.326   1_545  A
C87        C1948   1.462       .  S
C87        N1956   1.350       .  A
C90          C91   1.405       .  A
C90          C95   1.402       .  A
C90         C814   1.476       .  S
C91          C92   1.403       .  A
C91          H96   1.084       .  S
C92          C93   1.401       .  A
C93          C94   1.400       .  A
C93          H97   1.083       .  S
C94          C95   1.399       .  A
C94         C176   1.470       .  S
C95          H98   1.084       .  S
C99         C100   1.406       .  A
C99         C104   1.407       .  A
C99         C773   1.482       .  S
C100        C101   1.401       .  A
C100        H105   1.084       .  S
C101        C102   1.397       .  A
C101        C166   1.471       .  S
C102       C1983   1.398       .  A
C102        H106   1.082       .  S
C103       C1982   1.401       .  A
C103       C1984   1.408       .  A
C104       C1983   1.404       .  A
C104       H1987   1.083   1_545  S
H107       C1984   1.083   1_565  S
C108        C109   1.403       .  A
C108        C113   1.406       .  A
C108        C745   1.479       .  S
C109        C110   1.401       .  A
C109        H114   1.084       .  S
C110        C111   1.401       .  A
C110        C146   1.471       .  S
C111        C112   1.402       .  A
C111        H115   1.084       .  S
C112        C113   1.403       .  A
C112       C1017   1.474       .  S
C113        H116   1.084       .  S
C117        C118   1.403       .  A
C117        C122   1.408       .  A
C117        C730   1.485       .  S
C118        C119   1.400       .  A
C118        H123   1.083       .  S
C119        C120   1.401       .  A
C119        C162   1.471       .  S
C120        C121   1.399       .  A
C120        H124   1.083       .  S
C121        C122   1.405       .  A
C121        C992   1.476       .  S
C122        H125   1.083   1_545  S
C126        C163   1.463       .  S
C126        N144   1.348       .  A
N127        N144   1.324       .  A
N127        N149   1.319       .  A
N127       Co164   2.078       .  S
C128        C166   1.458       .  S
C128        H173   1.081       .  S
C128        N153   1.335       .  A
H129        C170   1.081       .  S
C130        C134   1.460       .  S
C130        H159   1.081       .  S
C130        N154   1.339       .  A
Co131       N149   2.081       .  S
Co131       N139   2.091       .  S
Co131       N171   2.087       .  S
Co131       N147   2.080       .  S
Co131      Cl175   2.464       .  S
N132        C170   1.337       .  A
N132        N139   1.319       .  A
N132       Co133   2.074       .  S
Co133       N136   2.077       .  S
Co133       N153   2.073       .  S
Co133       N140   2.084       .  S
Co133      Cl175   2.431       .  S
C134        N172   1.349       .  A
N135        N142   1.319       .  A
N135        N165   1.324       .  A
N135       Co168   2.080       .  S
N136        N154   1.318       .  A
N136        N172   1.323       .  A
N137        C166   1.350       .  A
N137        N147   1.325       .  A
H138        C163   1.081       .  S
N139        N160   1.325       .  A
N140        N158   1.320       .  A
N140        N145   1.324       .  A
C141        C169   1.462       .  S
C141        N145   1.349       .  A
N142        C157   1.337       .  A
N142       Co164   2.075       .  S
C143        C146   1.462       .  S
C143        H177   1.082       .  S
C143        N171   1.342       .  A
C146        N167   1.348       .  A
N147        N153   1.319       .  A
N148        C174   1.336       .  A
N148        N150   1.319       .  A
N148       Co164   2.072       .  S
N149        C163   1.340       .  A
N150        N178   1.324       .  A
N150       Co168   2.079       .  S
H151        C174   1.081       .  S
H152        C169   1.082       .  S
N154       Co168   2.075       .  S
N155        N167   1.322       .  A
N155        N171   1.320       .  A
N155       Co164   2.080       .  S
C156        C170   1.456       .  S
C156        N160   1.354       .  A
C157        C176   1.458       .  S
C157        H161   1.081       .  S
N158        C169   1.341       .  A
N158       Co168   2.086       .  S
C162        C174   1.456       .  S
C162        N178   1.351       .  A
Co164      Cl175   2.429       .  S
N165        C176   1.350       .  A
Co168      Cl175   2.463       .  S
N179        C184   1.351       .  A
N179        C183   1.354       .  A
N179        H211   1.029       .  S
N180        C187   1.352       .  A
N180        C188   1.351       .  A
N181        C186   1.353       .  A
N181        C185   1.351       .  A
N181        H212   1.031       .  S
N182        C189   1.347       .  A
N182        C190   1.350       .  A
C183        C191   1.389       .  A
C183        C199   1.423       .  A
C184        C200   1.420       .  A
C184        C192   1.388       .  A
C185        C193   1.390       .  A
C185        C202   1.420       .  A
C186        C201   1.418       .  A
C186        C194   1.387       .  A
C187        C199   1.419       .  A
C187       C1135   1.386       .  A
C188        C202   1.416       .  A
C188       C1136   1.386       .  A
C189        C197   1.388       .  A
C189        C200   1.411       .  A
C190        C198   1.385       .  A
C190        C201   1.408       .  A
C191        C192   1.375       .  A
C191        H203   1.082       .  S
C192        H204   1.082       .  S
C193        C194   1.370       .  A
C193        H205   1.082       .  S
C194        H206   1.082       .  S
C195        C196   1.376       .  A
C195       C1127   1.388   1_545  A
C195        H207   1.082       .  S
C196       C1128   1.385   1_545  A
C196        H208   1.082       .  S
C197        C198   1.371       .  A
C197        H209   1.082       .  S
C198        H210   1.082       .  S
C199        C661   1.494       .  S
C200        C702   1.476       .  S
C201        C857   1.480       .  S
C202        C786   1.484       .  S
N213        C218   1.354       .  A
N213        C217   1.354       .  A
N213        H245   1.039       .  S
N214        C221   1.345       .  A
N214        C222   1.349       .  A
N215        C220   1.348       .  A
N215        C219   1.348       .  A
N215        H246   1.040   1_556  S
N216        C223   1.348       .  A
N216        C224   1.351       .  A
C217        C225   1.387       .  A
C217        C233   1.417       .  A
C218        C234   1.419       .  A
C218        C226   1.388       .  A
C219        C227   1.386       .  A
C219        C236   1.406       .  A
C220        C235   1.410       .  A
C220        C228   1.388       .  A
C221        C233   1.407       .  A
C221        C229   1.387       .  A
C222        C236   1.406   1_554  A
C222        C230   1.385       .  A
C223        C234   1.410       .  A
C223       C2111   1.386   1_455  A
C224        C235   1.410   1_554  A
C224       C2112   1.385   1_455  A
C225        C226   1.378       .  A
C225        H237   1.083       .  S
C226        H238   1.082       .  S
C227        C228   1.375       .  A
C227        H239   1.083       .  S
C228        H240   1.083       .  S
C229        C230   1.379       .  A
C229        H241   1.082       .  S
C230        H242   1.082       .  S
C231        C232   1.380       .  A
C231       C2103   1.386       .  A
C231        H243   1.082       .  S
C232       C2104   1.386       .  A
C232        H244   1.082       .  S
C233        C801   1.480       .  S
C234        C829   1.492   1_455  S
C235        C633   1.491       .  S
C236        C605   1.485       .  S
N247        C252   1.353       .  A
N247        C251   1.353       .  A
N247        H279   1.036       .  S
N248        C255   1.349       .  A
N248        C256   1.349       .  A
N249        C254   1.353       .  A
N249        C253   1.352       .  A
N249        H280   1.034       .  S
N250        C257   1.348       .  A
N250        C258   1.349       .  A
C251        C259   1.388       .  A
C251        C267   1.418       .  A
C252        C268   1.415       .  A
C252        C260   1.387       .  A
C253        C261   1.389       .  A
C253        C270   1.417       .  A
C254        C269   1.415       .  A
C254        C262   1.387       .  A
C255        C267   1.411       .  A
C255        C263   1.387       .  A
C256        C270   1.410       .  A
C256        C264   1.385       .  A
C257        C268   1.407       .  A
C257       C2145   1.386   1_455  A
C258        C269   1.407       .  A
C258       C2146   1.385   1_455  A
C259        C260   1.373       .  A
C259        H271   1.083       .  S
C260        H272   1.082       .  S
C261        C262   1.370       .  A
C261        H273   1.082       .  S
C262        H274   1.082       .  S
C263        C264   1.376       .  A
C263        H275   1.082       .  S
C264        H276   1.082       .  S
C265        C266   1.373       .  A
C265       C2137   1.387       .  A
C265        H277   1.082       .  S
C266       C2138   1.385       .  A
C266        H278   1.082       .  S
C267        C758   1.483       .  S
C268        C926   1.479       .  S
C269        C577   1.480       .  S
C270        C562   1.482       .  S
N281        C286   1.355       .  A
N281        C285   1.352       .  A
N281        H313   1.036       .  S
N282        C289   1.350       .  A
N282        C290   1.352       .  A
N283        C288   1.351       .  A
N283        C287   1.353       .  A
N283        H314   1.035       .  S
N284        C291   1.350   1_554  A
N284        C292   1.349       .  A
C285        C293   1.388       .  A
C285        C301   1.418       .  A
C286        C302   1.416       .  A
C286        C294   1.386       .  A
C287        C295   1.388       .  A
C287        C304   1.416       .  A
C288        C303   1.416       .  A
C288        C296   1.389       .  A
C289        C301   1.414   1_554  A
C289        C297   1.387       .  A
C290        C304   1.412       .  A
C290        C298   1.385       .  A
C291        C302   1.410       .  A
C291       C1239   1.386   1_556  A
C292        C303   1.410       .  A
C292       C1240   1.386       .  A
C293        C294   1.375       .  A
C293        H305   1.083       .  S
C294        H306   1.082       .  S
C295        C296   1.371       .  A
C295        H307   1.082       .  S
C296        H308   1.082       .  S
C297        C298   1.378       .  A
C297        H309   1.082   1_554  S
C298        H310   1.082       .  S
C299        C300   1.374       .  A
C299       C1231   1.387   1_544  A
C299        H311   1.082   1_554  S
C300       C1232   1.385   1_545  A
C300        H312   1.082       .  S
C301        C534   1.486       .  S
C302        C506   1.488       .  S
C303        C717   1.479       .  S
C304        C898   1.488       .  S
C315        C316   1.406       .  A
C315        C320   1.406       .  A
C315        C521   1.485       .  S
C316        C317   1.403       .  A
C316        H321   1.084       .  S
C317        C318   1.402       .  A
C317       C2350   1.475       .  S
C318        C319   1.402       .  A
C318        H322   1.084       .  S
C319        C320   1.405       .  A
C319        C369   1.474       .  S
C320        H323   1.084       .  S
C324        C325   1.417       .  A
C324        C329   1.410       .  A
C324        C646   1.504       .  S
C325        C326   1.405       .  A
C325        H330   1.081       .  S
C326        C327   1.398       .  A
C326        C480   1.477       .  S
C327        C328   1.393       .  A
C327        H331   1.081       .  S
C328        C329   1.397       .  A
C328        C399   1.468       .  S
C329        H332   1.080       .  S
C333        C334   1.405       .  A
C333        C338   1.404       .  A
C333        C493   1.482       .  S
C334        C335   1.406       .  A
C334        H339   1.084       .  S
C335        C336   1.403       .  A
C335        C409   1.474       .  S
C336        C337   1.400       .  A
C336        H340   1.084       .  S
C337        C338   1.400       .  A
C337        C460   1.472       .  S
C338        H341   1.084       .  S
C342        C343   1.402       .  A
C342        C347   1.402       .  A
C342        C618   1.484       .  S
C343        C344   1.404       .  A
C343        H348   1.082       .  S
C344        C345   1.410       .  A
C344        C440   1.480       .  S
C345        C346   1.408       .  A
C345        H349   1.084       .  S
C346        C347   1.404       .  A
C346        C389   1.481       .  S
C347        H350   1.083       .  S
C351        C352   1.399       .  A
C351        C356   1.406       .  A
C351        C549   1.477       .  S
C352        C353   1.398       .  A
C352        H357   1.083       .  S
C353        C354   1.402       .  A
C353        C384   1.471       .  S
C354        C355   1.405       .  A
C354        H358   1.083       .  S
C355        C356   1.408       .  A
C355        C476   1.481       .  S
C356        H359   1.084       .  S
C360        C361   1.407       .  A
C360        C365   1.404       .  A
C360        C674   1.490       .  S
C361        C362   1.404       .  A
C361        H366   1.083       .  S
C362        C363   1.405       .  A
C362        C455   1.476       .  S
C363        C364   1.403       .  A
C363        H367   1.084       .  S
C364        C365   1.405       .  A
C364        C377   1.476       .  S
C365        H368   1.084       .  S
C369        C406   1.459       .  S
C369        N387   1.351       .  A
N370        N387   1.324       .  A
N370        N392   1.321       .  A
N370       Co407   2.092       .  S
C371        C409   1.459       .  S
C371        H416   1.082       .  S
C371        N396   1.339       .  A
H372        C413   1.081       .  S
C373        C377   1.458       .  S
C373        H402   1.082       .  S
C373        N397   1.340       .  A
Co374       N392   2.082       .  S
Co374       N382   2.078       .  S
Co374       N414   2.081       .  S
Co374       N390   2.084       .  S
Co374      Cl418   2.462       .  S
N375        C413   1.335       .  A
N375        N382   1.319       .  A
N375       Co376   2.068       .  S
Co376       N379   2.098       .  S
Co376       N396   2.088       .  S
Co376       N383   2.073       .  S
Co376      Cl418   2.436       .  S
C377        N415   1.353       .  A
N378        N385   1.319       .  A
N378        N408   1.324       .  A
N378       Co411   2.076       .  S
N379        N397   1.320       .  A
N379        N415   1.327       .  A
N380        C409   1.350       .  A
N380        N390   1.326       .  A
H381        C406   1.082       .  S
N382        N403   1.324       .  A
N383        N401   1.318       .  A
N383        N388   1.322       .  A
C384        C412   1.461       .  S
C384        N388   1.347       .  A
N385        C400   1.339       .  A
N385       Co407   2.086       .  S
C386        C389   1.461       .  S
C386        H420   1.081       .  S
C386        N414   1.338       .  A
C389        N410   1.352       .  A
N390        N396   1.321       .  A
N391        C417   1.338       .  A
N391        N393   1.321       .  A
N391       Co407   2.085       .  S
N392        C406   1.341       .  A
N393        N421   1.326       .  A
N393       Co411   2.083       .  S
H394        C417   1.081       .  S
H395        C412   1.081       .  S
N397       Co411   2.081       .  S
N398        N410   1.328       .  A
N398        N414   1.319       .  A
N398       Co407   2.093       .  S
C399        C413   1.456       .  S
C399        N403   1.349       .  A
C400        C419   1.462       .  S
C400        H404   1.081       .  S
N401        C412   1.340       .  A
N401       Co411   2.077       .  S
C405        C417   1.459       .  S
C405        C433   1.473       .  S
C405        N421   1.350       .  A
Co407      Cl418   2.439       .  S
N408        C419   1.349       .  A
Co411      Cl418   2.464       .  S
C419        C424   1.476       .  S
C422        C423   1.404       .  A
C422        C427   1.403       .  A
C422        C590   1.479       .  S
C423        C424   1.405       .  A
C423        H428   1.084       .  S
C424        C425   1.402       .  A
C425        C426   1.401       .  A
C425        H429   1.083       .  S
C426        C427   1.404       .  A
C426        C448   1.476       .  S
C427        H430   1.083       .  S
C431        C432   1.406       .  A
C431        C436   1.400       .  A
C431        C689   1.477       .  S
C432        C433   1.405       .  A
C432        H437   1.084       .  S
C433        C434   1.402       .  A
C434        C435   1.400       .  A
C434        H438   1.083       .  S
C435        C436   1.395       .  A
C435        C490   1.468       .  S
C436        H439   1.084       .  S
C440        C477   1.464       .  S
C440        N458   1.350       .  A
N441        N458   1.325       .  A
N441        N463   1.318       .  A
N441       Co478   2.086       .  S
C442        C480   1.459       .  S
C442        H487   1.081       .  S
C442       N1407   1.333   1_545  A
H443        C484   1.082       .  S
C444       C2328   1.460   1_455  S
C444        H473   1.081       .  S
C444        N468   1.341       .  A
Co445       N463   2.081       .  S
Co445       N453   2.086       .  S
Co445       N485   2.083       .  S
Co445       N461   2.076       .  S
Co445      Cl489   2.464       .  S
N446       C2364   1.337       .  A
N446        N453   1.320   1_655  A
N446      Co2327   2.074       .  S
Co447       N467   2.080       .  S
Co447       N454   2.091       .  S
Co447      N2326   2.083       .  S
Co447      N2330   2.086       .  S
Co447     Cl2369   2.431       .  S
C448       C2324   1.459       .  S
C448        N486   1.351       .  A
N449        N456   1.320       .  A
N449        N479   1.323       .  A
N449       Co482   2.087       .  S
N450        N468   1.318       .  A
N450       N2366   1.324   1_455  A
N450      Co2327   2.084   1_455  S
N451       C2360   1.353   1_455  A
N451       N1401   1.328   1_545  A
H452        C477   1.081       .  S
N453        N474   1.324       .  A
N454       N2352   1.321       .  A
N454       N1399   1.325       .  A
C455       C2363   1.464       .  S
C455        N459   1.349       .  A
N456        C471   1.336       .  A
N456       Co478   2.068       .  S
C457        C460   1.460       .  S
C457        H491   1.082       .  S
C457       N1425   1.341   1_545  A
N459       N1394   1.324   1_545  A
C460        N481   1.350       .  A
N461       N1391   1.325       .  A
N461       N2347   1.319   1_455  A
N462       C1428   1.338       .  A
N462        N464   1.320       .  A
N462       Co478   2.081       .  S
N463        C477   1.341       .  A
N464       N1432   1.325       .  A
N464       Co482   2.082       .  S
H465        C488   1.081       .  S
H466        C483   1.082       .  S
N467       C1382   1.333       .  A
N467       N2341   1.320       .  A
N468       Co482   2.076       .  S
N469        N485   1.319       .  A
N469       N1421   1.322       .  A
N469       Co478   2.079       .  S
C470       C2197   1.471       .  S
C470       C2364   1.456       .  S
C470        N474   1.352   1_655  A
C471        C490   1.455       .  S
C471        H475   1.081       .  S
N472       C1423   1.344       .  A
N472       N2334   1.320       .  A
N472       Co482   2.094       .  S
C476        C488   1.462       .  S
C476        N492   1.351       .  A
Co478      Cl489   2.433       .  S
N479        C490   1.351       .  A
C480       N2331   1.353       .  A
N481       N1409   1.324   1_545  A
Co482      Cl489   2.464       .  S
C483       C2335   1.463   1_455  S
C483       N1412   1.342   1_545  A
C484       C2350   1.459       .  S
C484       N2326   1.339       .  A
N485       C1397   1.342       .  A
N486       N2330   1.324       .  A
C488       N1402   1.340   1_545  A
Cl489     Co2327   2.429   1_455  S
N492       N1404   1.327   1_545  A
C493        C494   1.412       .  A
C493        C498   1.404       .  A
C494        C495   1.399       .  A
C494        N499   1.439       .  S
C495        C496   1.402       .  A
C495        H500   1.084   1_545  S
C496        C497   1.414       .  A
C496        C501   1.488       .  S
C497        C498   1.411       .  A
C497        N502   1.437       .  S
C498        H503   1.084       .  S
N499        H519   1.046   1_545  S
N499        H520   1.046       .  S
C501        C504   1.405       .  A
C501       C1448   1.413       .  A
N502        H517   1.046       .  S
N502       H1458   1.046       .  S
C504        C505   1.403       .  A
C504        H509   1.084       .  S
C505       C1446   1.416       .  A
C505        N510   1.438       .  S
C506        C507   1.402       .  A
C506       C1445   1.417       .  A
C507        C508   1.404       .  A
C507        H511   1.084       .  S
C508       C1441   1.411       .  A
C508        N512   1.438       .  S
N510        H513   1.046       .  S
N510        H514   1.043       .  S
N512        H515   1.046       .  S
N512        H516   1.045       .  S
H518       N1442   1.046       .  S
C521        C522   1.410       .  A
C521        C526   1.405       .  A
C522        C523   1.407       .  A
C522        N527   1.431       .  S
C523        C524   1.404       .  A
C523        H528   1.084       .  S
C524        C525   1.409       .  A
C524        C529   1.481       .  S
C525        C526   1.402       .  A
C525        N530   1.439       .  S
C526        H531   1.084       .  S
N527        H547   1.046       .  S
N527        H548   1.045       .  S
C529        C532   1.404       .  A
C529        C536   1.416       .  A
N530        H545   1.046       .  S
N530        H546   1.046       .  S
C532        C533   1.403       .  A
C532        H537   1.084       .  S
C533        C534   1.416       .  A
C533        N538   1.438       .  S
C534        C535   1.402       .  A
C535        C536   1.400       .  A
C535        H539   1.084       .  S
C536        N540   1.439       .  S
N538        H541   1.045       .  S
N538        H542   1.043       .  S
N540        H543   1.046       .  S
N540        H544   1.043       .  S
C549        C550   1.414       .  A
C549        C554   1.401       .  A
C550        C551   1.404       .  A
C550        N555   1.438       .  S
C551        C552   1.398       .  A
C551        H556   1.084       .  S
C552        C553   1.410       .  A
C552        C557   1.474       .  S
C553        C554   1.404       .  A
C553        N558   1.438       .  S
C554        H559   1.084       .  S
N555       H1515   1.046       .  S
N555       H1516   1.046       .  S
C557        C560   1.400       .  A
C557        C564   1.408       .  A
N558        H573   1.046       .  S
N558        H574   1.046       .  S
C560        C561   1.399       .  A
C560        H565   1.084       .  S
C561        C562   1.415       .  A
C561        N566   1.438       .  S
C562        C563   1.403       .  A
C563        C564   1.403       .  A
C563        H567   1.084       .  S
C564        N568   1.438       .  S
N566        H569   1.046       .  S
N566        H570   1.043       .  S
N568        H571   1.046       .  S
N568        H572   1.046       .  S
H575       N1495   1.046       .  S
H576       N1495   1.046       .  S
C577        C578   1.414       .  A
C577       C2462   1.403   1_455  A
C578       C2459   1.397       .  A
C578        N583   1.439       .  S
C579        C580   1.402       .  A
C579       C2458   1.400       .  A
C579        H584   1.084       .  S
C580        C581   1.409       .  A
C580        C585   1.480       .  S
C581        C582   1.405       .  A
C581        N586   1.438       .  S
C582       C2457   1.403       .  A
C582        H587   1.084       .  S
N583        H603   1.043       .  S
N583        H604   1.046       .  S
C585        C588   1.401       .  A
C585        C592   1.411       .  A
N586        H601   1.046       .  S
N586        H602   1.046       .  S
C588        C589   1.407       .  A
C588        H593   1.084       .  S
C589        C590   1.412       .  A
C589        N594   1.437       .  S
C590        C591   1.401       .  A
C591        C592   1.405       .  A
C591        H595   1.084       .  S
C592       N2476   1.438       .  S
N594        H597   1.046       .  S
N594        H598   1.046       .  S
N596       C2472   1.439   1_455  S
N596        H599   1.046       .  S
N596        H600   1.046       .  S
C605        C606   1.412       .  A
C605        C610   1.403       .  A
C606        C607   1.396       .  A
C606        N611   1.434       .  S
C607        C608   1.397       .  A
C607        H612   1.084       .  S
C608        C609   1.411       .  A
C608        C613   1.473       .  S
C609        C610   1.409       .  A
C609        N614   1.437       .  S
C610        H615   1.083       .  S
N611        H631   1.045       .  S
N611        H632   1.046       .  S
C613        C616   1.399       .  A
C613        C620   1.409       .  A
N614        H629   1.046       .  S
N614        H630   1.045       .  S
C616        C617   1.403       .  A
C616        H621   1.084       .  S
C617        C618   1.412       .  A
C617        N622   1.432       .  S
C618        C619   1.404       .  A
C619        C620   1.404       .  A
C619        H623   1.084       .  S
C620        N624   1.439       .  S
N622        H625   1.046       .  S
N622        H626   1.046       .  S
N624        H627   1.046       .  S
N624        H628   1.045       .  S
C633        C638   1.405   1_455  A
C633       C2514   1.412   1_455  A
C634        C635   1.401       .  A
C634       C2513   1.410       .  A
C634        N639   1.432       .  S
C635        C636   1.410       .  A
C635        H640   1.083       .  S
C636        C637   1.418       .  A
C636        C641   1.499       .  S
C637       C2518   1.400       .  A
C637       N2522   1.439       .  S
C638       C2517   1.401       .  A
C638        H643   1.084   1_655  S
N639        H659   1.046       .  S
N639        H660   1.043       .  S
C641        C644   1.403       .  A
C641        C648   1.416       .  A
N642       C2517   1.439       .  S
N642        H657   1.046   1_655  S
N642       H2538   1.046   1_655  S
C644        C645   1.402       .  A
C644        H649   1.082       .  S
C645        C646   1.421       .  A
C645        N650   1.438       .  S
C646        C647   1.409       .  A
C647        C648   1.406       .  A
C647        H651   1.081       .  S
C648        N652   1.438       .  S
N650        H653   1.045       .  S
N650        H654   1.046       .  S
N652        H655   1.046       .  S
N652       H2536   1.046       .  S
H656       N2532   1.046       .  S
H658       N2522   1.046       .  S
C661        C666   1.402       .  A
C661       C1602   1.418       .  A
C662        C663   1.407       .  A
C662       C1601   1.418       .  A
C662        N667   1.438       .  S
C663        C664   1.406       .  A
C663        H668   1.083       .  S
C664        C665   1.413       .  A
C664        C669   1.495       .  S
C665       C1606   1.405   1_545  A
C665        N670   1.438   1_545  S
C666       C1605   1.407       .  A
C666        H671   1.084       .  S
N667        H688   1.045       .  S
N667       H1627   1.044       .  S
C669        C672   1.404       .  A
C669        C676   1.414       .  A
N670        H685   1.046       .  S
N670        H686   1.046   1_565  S
C672        C673   1.402       .  A
C672       H1617   1.084   1_545  S
C673        C674   1.413       .  A
C673        N678   1.439   1_545  S
C674        C675   1.407       .  A
C675        C676   1.412       .  A
C675        H679   1.084       .  S
C676        N680   1.437       .  S
H677       C1612   1.084       .  S
N678        H682   1.046   1_565  S
N678       H1621   1.046       .  S
N680        H683   1.046       .  S
N680        H684   1.045       .  S
H681       N1618   1.046       .  S
H687       N1607   1.044       .  S
C689        C690   1.409       .  A
C689        C694   1.404       .  A
C690        C691   1.407       .  A
C690        N695   1.437       .  S
C691        C692   1.406       .  A
C691        H696   1.084       .  S
C692        C693   1.409       .  A
C692        C697   1.477       .  S
C693        C694   1.395       .  A
C693        N698   1.440       .  S
C694        H699   1.084       .  S
N695        H715   1.045       .  S
N695        H716   1.046       .  S
C697        C700   1.406       .  A
C697        C704   1.411       .  A
N698        H713   1.046       .  S
N698        H714   1.046       .  S
C700        C701   1.403       .  A
C700        H705   1.084       .  S
C701        C702   1.406       .  A
C701        N706   1.437       .  S
C702        C703   1.399       .  A
C703        C704   1.399       .  A
C703        H707   1.084       .  S
C704        N708   1.438       .  S
N706        H709   1.046       .  S
N706        H710   1.045       .  S
N708        H711   1.046       .  S
N708        H712   1.046       .  S
C717        C718   1.415       .  A
C717       C1662   1.402       .  A
C718        C719   1.397       .  A
C718        N723   1.438       .  S
C719       C1660   1.400       .  A
C719        H724   1.084       .  S
C720        C721   1.408       .  A
C720       C1659   1.399   1_545  A
C720        C725   1.473       .  S
C721        C722   1.405       .  A
C721        N726   1.437       .  S
C722       C1657   1.402   1_545  A
C722        H727   1.084       .  S
N723        H743   1.043       .  S
N723        H744   1.046       .  S
C725        C728   1.400       .  A
C725        C732   1.405       .  A
N726        H741   1.046       .  S
N726        H742   1.046       .  S
C728        C729   1.403       .  A
C728        H733   1.084       .  S
C729        C730   1.415       .  A
C729        N734   1.438       .  S
C730        C731   1.407       .  A
C731        C732   1.405       .  A
C731        H735   1.083       .  S
C732        N736   1.437       .  S
N734        H737   1.046       .  S
N734        H738   1.045       .  S
N736        H739   1.046       .  S
N736        H740   1.046       .  S
C745        C746   1.412       .  A
C745        C750   1.403       .  A
C746        C747   1.407       .  A
C746        N751   1.437       .  S
C747        C748   1.401       .  A
C747        H752   1.084       .  S
C748        C749   1.408       .  A
C748        C753   1.473       .  S
C749        C750   1.401       .  A
C749        N754   1.439       .  S
C750        H755   1.084       .  S
N751        H771   1.046       .  S
N751        H772   1.046       .  S
C753        C756   1.401       .  A
C753        C760   1.409       .  A
N754        H769   1.046       .  S
N754        H770   1.045       .  S
C756        C757   1.400       .  A
C756        H761   1.084       .  S
C757        C758   1.407       .  A
C757        N762   1.433       .  S
C758        C759   1.402       .  A
C759        C760   1.405       .  A
C759        H763   1.084       .  S
C760        N764   1.438       .  S
N762        H765   1.046       .  S
N762        H766   1.046       .  S
N764        H767   1.046       .  S
N764        H768   1.045       .  S
C773        C774   1.414       .  A
C773        C778   1.402       .  A
C774        C775   1.409       .  A
C774        N779   1.438       .  S
C775        C776   1.403       .  A
C775        H780   1.084       .  S
C776        C777   1.411       .  A
C776        C781   1.483       .  S
C777        C778   1.402       .  A
C777       N1722   1.438       .  S
C778        H783   1.084       .  S
N779        H799   1.046       .  S
N779        H800   1.046       .  S
C781        C784   1.403       .  A
C781        C788   1.410   1_545  A
N782       C1717   1.438       .  S
N782        H797   1.046       .  S
N782        H798   1.046       .  S
C784        C785   1.400       .  A
C784        H789   1.084       .  S
C785       C1726   1.416   1_545  A
C785        N790   1.438       .  S
C786        C787   1.402       .  A
C786       C1725   1.416       .  A
C787       C1728   1.405       .  A
C787        H791   1.084       .  S
C788       C1727   1.406       .  A
C788        N792   1.438       .  S
N790        H793   1.046       .  S
N790       H1734   1.043       .  S
N792        H796   1.046       .  S
N792       H1735   1.046       .  S
H794       N1730   1.044       .  S
H795       N1732   1.046       .  S
C801        C802   1.407       .  A
C801        C806   1.402       .  A
C802        C803   1.403       .  A
C802        N807   1.437       .  S
C803        C804   1.403       .  A
C803        H808   1.084       .  S
C804        C805   1.410       .  A
C804        C809   1.477       .  S
C805        C806   1.404       .  A
C805        N810   1.438       .  S
C806        H811   1.084       .  S
N807        H827   1.045       .  S
N807        H828   1.046       .  S
C809        C812   1.404       .  A
C809        C816   1.409       .  A
N810        H825   1.046       .  S
N810        H826   1.046       .  S
C812        C813   1.409       .  A
C812        H817   1.083       .  S
C813        C814   1.410       .  A
C813        N818   1.437       .  S
C814        C815   1.402       .  A
C815        C816   1.398       .  A
C815        H819   1.084       .  S
C816        N820   1.439       .  S
N818        H821   1.046       .  S
N818        H822   1.046       .  S
N820        H823   1.046       .  S
N820        H824   1.046       .  S
C829        C834   1.406       .  A
C829       C2710   1.418       .  A
C830        C831   1.401       .  A
C830       C2709   1.419       .  A
C830        N835   1.438       .  S
C831        C832   1.401       .  A
C831        H836   1.084       .  S
C832       C2713   1.409       .  A
C832        C837   1.480       .  S
C833        C834   1.408       .  A
C833       C2712   1.408       .  A
C833        N838   1.437       .  S
C834        H839   1.084   1_655  S
N835        H855   1.043       .  S
N835        H856   1.046       .  S
C837        C840   1.403       .  A
C837        C844   1.408       .  A
N838        H853   1.046       .  S
N838        H854   1.045       .  S
C840        C841   1.410       .  A
C840        H845   1.084       .  S
C841        C842   1.414       .  A
C841        N846   1.438       .  S
C842        C843   1.405       .  A
C843        C844   1.402       .  A
C843        H847   1.084       .  S
C844       N2728   1.439       .  S
N846        H849   1.045       .  S
N846        H850   1.046       .  S
N848       C2724   1.438   1_455  S
N848        H851   1.046       .  S
N848        H852   1.045       .  S
C857        C858   1.408       .  A
C857        C862   1.400       .  A
C858        C859   1.405       .  A
C858        N863   1.437       .  S
C859        C860   1.404       .  A
C859        H864   1.084       .  S
C860        C861   1.409       .  A
C860        C865   1.477       .  S
C861        C862   1.400       .  A
C861        N866   1.438       .  S
C862        H867   1.084       .  S
N863        H883   1.046       .  S
N863        H884   1.046       .  S
C865        C868   1.404       .  A
C865        C872   1.408       .  A
N866        H881   1.046       .  S
N866        H882   1.046       .  S
C868        C869   1.400       .  A
C868        H873   1.084       .  S
C869        C870   1.407       .  A
C869        N874   1.438       .  S
C870        C871   1.405       .  A
C871        C872   1.405       .  A
C871        H875   1.084       .  S
C872        N876   1.437       .  S
N874        H877   1.046       .  S
N874        H878   1.046       .  S
N876        H879   1.046       .  S
N876        H880   1.046       .  S
C885        C886   1.410       .  A
C885        C890   1.399       .  A
C886        C887   1.407       .  A
C886        N891   1.438       .  S
C887        C888   1.402       .  A
C887        H892   1.084       .  S
C888        C889   1.411       .  A
C888        C893   1.479       .  S
C889        C890   1.404       .  A
C889        N894   1.438       .  S
C890        H895   1.084       .  S
N891        H911   1.046       .  S
N891        H912   1.046       .  S
C893        C896   1.401       .  A
C893        C900   1.410       .  A
N894        H909   1.046       .  S
N894        H910   1.046       .  S
C896        C897   1.399       .  A
C896        H901   1.084       .  S
C897        C898   1.412       .  A
C897        N902   1.432       .  S
C898        C899   1.404       .  A
C899        C900   1.408       .  A
C899        H903   1.083       .  S
C900        N904   1.438       .  S
N902        H905   1.045       .  S
N902        H906   1.045       .  S
N904        H907   1.045       .  S
N904        H908   1.046       .  S
C913        C914   1.415       .  A
C913        C918   1.406       .  A
C914        C915   1.398       .  A
C914        N919   1.439       .  S
C915        C916   1.399       .  A
C915        H920   1.084       .  S
C916        C917   1.410       .  A
C916        C921   1.479       .  S
C917        C918   1.409       .  A
C917        N922   1.437       .  S
C918        H923   1.084       .  S
N919        H939   1.046       .  S
N919        H940   1.046       .  S
C921        C928   1.410       .  A
C921       C2804   1.402       .  A
N922        H937   1.045       .  S
N922        H938   1.046       .  S
C924        C925   1.397   1_655  A
C924       C2801   1.403       .  A
C924        H929   1.084   1_655  S
C925        C926   1.410       .  A
C925        N930   1.433       .  S
C926       C2807   1.400   1_455  A
C927        C928   1.404       .  A
C927       C2806   1.402       .  A
C927        H931   1.084       .  S
C928        N932   1.437       .  S
N930        H933   1.045       .  S
N930        H934   1.046       .  S
N932        H935   1.046       .  S
N932        H936   1.046       .  S
C941        C942   1.407       .  A
C941        C946   1.402       .  A
C941       C1853   1.486       .  S
C942        C943   1.404       .  A
C942        H947   1.083       .  S
C943        C944   1.401       .  A
C943        C977   1.474       .  S
C944        C945   1.403       .  A
C944        H948   1.084       .  S
C945        C946   1.400       .  A
C945       C1096   1.471       .  S
C946        H949   1.083       .  S
C950        C951   1.402       .  A
C950        C955   1.402       .  A
C950       C1825   1.476       .  S
C951        C952   1.403       .  A
C951        H956   1.084       .  S
C952        C953   1.404       .  A
C952       C1027   1.476       .  S
C953        C954   1.404       .  A
C953        H957   1.083       .  S
C954        C955   1.403       .  A
C954       C1074   1.476       .  S
C955        H958   1.083       .  S
C959        C960   1.402       .  A
C959        C964   1.403       .  A
C959       C1810   1.482       .  S
C960        C961   1.405       .  A
C960        H965   1.083       .  S
C961        C962   1.405       .  A
C961        C997   1.478       .  S
C962        C963   1.406       .  A
C962        H966   1.084       .  S
C963        C964   1.403       .  A
C963       C1066   1.476       .  S
C964        H967   1.083       .  S
C968        C969   1.403       .  A
C968        C973   1.399       .  A
C968       C1782   1.476       .  S
C969        C970   1.403       .  A
C969        H974   1.084       .  S
C970        C971   1.403       .  A
C970       C1081   1.471       .  S
C971        C972   1.402       .  A
C971        H975   1.084       .  S
C972        C973   1.400       .  A
C972       C2865   1.467       .  S
C973        H976   1.084       .  S
C977       C2894   1.460       .  S
C977       N2875   1.350       .  A
N978        N995   1.324       .  A
N978       N1000   1.320       .  A
N978      Co1015   2.088       .  S
C979       H1024   1.082       .  S
H980       C1021   1.081   1_655  S
C981       H1010   1.082   1_455  S
C981       N1005   1.341       .  A
Co982      N1000   2.080       .  S
Co982       N990   2.081       .  S
Co982      N1022   2.081       .  S
Co982       N998   2.088       .  S
Co982     Cl1026   2.468       .  S
N983        N990   1.320       .  A
N983       Co984   2.088       .  S
Co984       N987   2.093       .  S
Co984      N1004   2.085       .  S
Co984       N991   2.094       .  S
Co984     Cl1026   2.435       .  S
C985       C2852   1.475       .  S
C985       N1023   1.351   1_655  A
N986        N993   1.319       .  A
N986       N1016   1.325       .  A
N986      Co1019   2.081       .  S
N987       N1005   1.320       .  A
N988       C1017   1.352   1_565  A
N988        N998   1.326       .  A
H989       C1014   1.082   1_655  S
N990       N1011   1.327       .  A
N991       N1009   1.320       .  A
N991        N996   1.324   1_565  A
C992       C1020   1.458   1_545  S
C992        N996   1.352       .  A
N993       C1008   1.339       .  A
N993      Co1015   2.081       .  S
C994        C997   1.460       .  S
C994       H1028   1.081       .  S
C994       N1022   1.339       .  A
N995       C2857   1.350   1_455  A
C997       N1018   1.351       .  A
N998       N1004   1.321       .  A
N999       C1025   1.338       .  A
N999       N1001   1.321       .  A
N999      Co1015   2.086       .  S
N1000      C1014   1.340       .  A
N1001      N1029   1.327       .  A
N1001     Co1019   2.087       .  S
H1002      C1025   1.082       .  S
H1003      C1020   1.081       .  S
N1005     Co1019   2.087       .  S
N1006      N1018   1.326       .  A
N1006      N1022   1.320       .  A
N1006     Co1015   2.090       .  S
C1007      C1021   1.462   1_655  S
C1007      C1043   1.479       .  S
C1008      C2907   1.459   1_455  S
C1008      H2892   1.081   1_455  S
N1009      C1020   1.341       .  A
N1009     Co1019   2.076       .  S
H1012      C2888   1.081       .  S
C1013      C1025   1.460       .  S
C1013      C1032   1.475       .  S
C1013      N1029   1.350       .  A
C1014      C2857   1.458   1_455  S
Co1015    Cl1026   2.438       .  S
N1016      C2907   1.351   1_455  A
Co1019    Cl1026   2.468       .  S
C1027      C2888   1.459       .  S
C1027      N2896   1.351       .  A
C1030      C1031   1.408       .  A
C1030      C1035   1.403       .  A
C1030      C1754   1.480       .  S
C1031      C1032   1.405       .  A
C1031      H1036   1.084       .  S
C1032      C1033   1.400       .  A
C1033      C1034   1.399       .  A
C1033      H1037   1.083       .  S
C1034      C1035   1.399       .  A
C1034      C1116   1.469       .  S
C1035      H1038   1.084       .  S
C1039      C1040   1.405       .  A
C1039      C1044   1.407       .  A
C1039      C1713   1.480       .  S
C1040      C1041   1.401       .  A
C1040      H1045   1.084       .  S
C1041      C1042   1.399       .  A
C1041      C1106   1.474       .  S
C1042      C2923   1.399       .  A
C1042      H1046   1.080       .  S
C1043      C2922   1.399       .  A
C1043      C2924   1.405       .  A
C1044      C2923   1.405       .  A
C1044      H2927   1.084       .  S
H1047      C2924   1.084       .  S
C1048      C1049   1.406       .  A
C1048      C1053   1.406       .  A
C1048      C1685   1.483       .  S
C1049      C1050   1.404       .  A
C1049      H1054   1.084       .  S
C1050      C1051   1.401       .  A
C1050      C1086   1.472       .  S
C1051      C1052   1.400       .  A
C1051      H1055   1.084       .  S
C1052      C1053   1.403       .  A
C1053      H1056   1.084       .  S
C1057      C1058   1.402       .  A
C1057      C1062   1.405       .  A
C1057      C1670   1.480       .  S
C1058      C1059   1.400       .  A
C1058      H1063   1.084       .  S
C1059      C1060   1.402       .  A
C1059      C1102   1.472       .  S
C1060      C1061   1.401       .  A
C1060      H1064   1.083       .  S
C1061      C1062   1.405       .  A
C1062      H1065   1.083       .  S
C1066      C1103   1.463       .  S
C1066      N1084   1.349       .  A
N1067      N1084   1.324       .  A
N1067      N1089   1.319       .  A
N1067     Co1104   2.080       .  S
C1068      C1106   1.459       .  S
C1068      H1113   1.081       .  S
C1068      N1093   1.335       .  A
H1069      C1110   1.081       .  S
C1070      C1074   1.461       .  S
C1070      H1099   1.081       .  S
C1070      N1094   1.341       .  A
Co1071     N1089   2.082       .  S
Co1071     N1079   2.087       .  S
Co1071     N1111   2.084       .  S
Co1071     N1087   2.082       .  S
Co1071    Cl1115   2.464       .  S
N1072      C1110   1.337       .  A
N1072      N1079   1.320       .  A
N1072     Co1073   2.073       .  S
Co1073     N1076   2.083       .  S
Co1073     N1093   2.075       .  S
Co1073     N1080   2.083       .  S
Co1073    Cl1115   2.432       .  S
C1074      N1112   1.350       .  A
N1075      N1082   1.319       .  A
N1075      N1105   1.324       .  A
N1075     Co1108   2.077       .  S
N1076      N1094   1.318       .  A
N1076      N1112   1.324       .  A
N1077      C1106   1.351       .  A
N1077      N1087   1.326       .  A
H1078      C1103   1.081       .  S
N1079      N1100   1.324       .  A
N1080      N1098   1.319       .  A
N1080      N1085   1.324       .  A
C1081      C1109   1.460       .  S
C1081      N1085   1.349       .  A
N1082      C1097   1.336       .  A
N1082     Co1104   2.076       .  S
C1083      C1086   1.462       .  S
C1083      H1117   1.082       .  S
C1083      N1111   1.343       .  A
C1086      N1107   1.348       .  A
N1087      N1093   1.319       .  A
N1088      C1114   1.337       .  A
N1088      N1090   1.319       .  A
N1088     Co1104   2.073       .  S
N1089      C1103   1.340       .  A
N1090      N1118   1.324       .  A
N1090     Co1108   2.080       .  S
H1091      C1114   1.081       .  S
H1092      C1109   1.082       .  S
N1094     Co1108   2.079       .  S
N1095      N1107   1.322       .  A
N1095      N1111   1.319       .  A
N1095     Co1104   2.081       .  S
C1096      C1110   1.456       .  S
C1096      N1100   1.352       .  A
C1097      C1116   1.457       .  S
C1097      H1101   1.081       .  S
N1098      C1109   1.340       .  A
N1098     Co1108   2.080       .  S
C1102      C1114   1.457       .  S
C1102      N1118   1.351       .  A
Co1104    Cl1115   2.429       .  S
N1105      C1116   1.349       .  A
Co1108    Cl1115   2.464       .  S
N1119      C1124   1.354       .  A
N1119      C1123   1.356       .  A
N1119      H1151   1.031       .  S
N1120      C1127   1.352       .  A
N1120      C1128   1.352       .  A
N1121      C1126   1.354       .  A
N1121      C1125   1.353       .  A
N1121      H1152   1.033       .  S
N1122      C1129   1.349       .  A
N1122      C1130   1.351       .  A
C1123      C1131   1.389       .  A
C1123      C1139   1.425       .  A
C1124      C1140   1.421       .  A
C1124      C1132   1.387       .  A
C1125      C1133   1.388       .  A
C1125      C1142   1.418       .  A
C1126      C1141   1.417       .  A
C1126      C1134   1.387       .  A
C1127      C1139   1.419       .  A
C1128      C1142   1.415       .  A
C1129      C1137   1.388       .  A
C1129      C1140   1.413       .  A
C1130      C1138   1.384       .  A
C1130      C1141   1.409       .  A
C1131      C1132   1.376       .  A
C1131      H1143   1.081       .  S
C1132      H1144   1.083       .  S
C1133      C1134   1.369       .  A
C1133      H1145   1.082       .  S
C1134      H1146   1.082       .  S
C1135      C1136   1.377       .  A
C1135      H1147   1.082       .  S
C1136      H1148   1.082       .  S
C1137      C1138   1.373       .  A
C1137      H1149   1.082       .  S
C1138      H1150   1.082       .  S
C1139      C1601   1.496   1_565  S
C1140      C1642   1.484       .  S
C1141      C1797   1.484       .  S
C1142      C1726   1.487       .  S
N1153      C1158   1.355       .  A
N1153      C1157   1.354       .  A
N1153      H1185   1.039       .  S
N1154      C1161   1.344       .  A
N1154      C1162   1.349       .  A
N1155      C1160   1.347       .  A
N1155      C1159   1.351       .  A
N1155      H1186   1.040   1_556  S
N1156      C1163   1.348       .  A
N1156      C1164   1.350       .  A
C1157      C1165   1.388       .  A
C1157      C1173   1.417       .  A
C1158      C1174   1.418       .  A
C1158      C1166   1.387       .  A
C1159      C1167   1.388       .  A
C1159      C1176   1.410       .  A
C1160      C1175   1.409       .  A
C1160      C1168   1.386       .  A
C1161      C1173   1.406       .  A
C1161      C1169   1.387       .  A
C1162      C1176   1.406   1_554  A
C1162      C1170   1.385       .  A
C1163      C3051   1.385   1_455  A
C1163      C1174   1.409       .  A
C1164      C3052   1.386   1_455  A
C1164      C1175   1.412   1_554  A
C1165      C1166   1.376       .  A
C1165      H1177   1.083       .  S
C1166      H1178   1.083       .  S
C1167      C1168   1.373       .  A
C1167      H1179   1.080       .  S
C1168      H1180   1.083       .  S
C1169      C1170   1.378       .  A
C1169      H1181   1.082       .  S
C1170      H1182   1.082       .  S
C1171      C3043   1.387       .  A
C1171      C1172   1.381       .  A
C1171      H1183   1.082       .  S
C1172      C3044   1.385       .  A
C1172      H1184   1.082       .  S
C1173      C1741   1.477       .  S
C1174      C1769   1.489   1_455  S
C1175      C1573   1.492       .  S
C1176      C1545   1.484       .  S
N1187      C1192   1.353       .  A
N1187      C1191   1.354       .  A
N1187      H1219   1.035       .  S
N1188      C1195   1.350       .  A
N1188      C1196   1.350       .  A
N1189      C1194   1.354       .  A
N1189      C1193   1.352       .  A
N1189      H1220   1.033       .  S
N1190      C1197   1.348       .  A
N1190      C1198   1.349       .  A
C1191      C1199   1.388       .  A
C1191      C1207   1.419       .  A
C1192      C1208   1.417       .  A
C1192      C1200   1.388       .  A
C1193      C1201   1.389       .  A
C1193      C1210   1.418       .  A
C1194      C1209   1.417       .  A
C1194      C1202   1.387       .  A
C1195      C1207   1.413       .  A
C1195      C1203   1.387       .  A
C1196      C1210   1.410       .  A
C1196      C1204   1.385       .  A
C1197      C3085   1.387   1_455  A
C1197      C1208   1.409       .  A
C1198      C3086   1.385   1_455  A
C1198      C1209   1.408       .  A
C1199      C1200   1.374       .  A
C1199      H1211   1.082       .  S
C1200      H1212   1.082       .  S
C1201      C1202   1.370       .  A
C1201      H1213   1.082       .  S
C1202      H1214   1.082       .  S
C1203      C1204   1.373       .  A
C1203      H1215   1.082       .  S
C1204      H1216   1.082       .  S
C1205      C3077   1.387       .  A
C1205      C1206   1.374       .  A
C1205      H1217   1.082       .  S
C1206      C3078   1.385       .  A
C1206      H1218   1.082       .  S
C1207      C1698   1.489       .  S
C1208      C1866   1.480       .  S
C1209      C1517   1.482       .  S
C1210      C1502   1.482       .  S
N1221      C1226   1.354       .  A
N1221      C1225   1.353       .  A
N1221      H1253   1.034       .  S
N1222      C1229   1.348   1_554  A
N1222      C1230   1.349       .  A
N1223      C1228   1.350       .  A
N1223      C1227   1.352       .  A
N1223      H1254   1.034       .  S
N1224      C1231   1.349   1_554  A
N1224      C1232   1.349       .  A
C1225      C1233   1.388       .  A
C1225      C1241   1.418       .  A
C1226      C1242   1.418       .  A
C1226      C1234   1.387       .  A
C1227      C1235   1.389       .  A
C1227      C1244   1.414       .  A
C1228      C1243   1.413       .  A
C1228      C1236   1.387       .  A
C1229      C1241   1.410       .  A
C1229      C1237   1.387   1_556  A
C1230      C1244   1.408       .  A
C1230      C1238   1.385       .  A
C1231      C1242   1.411       .  A
C1232      C1243   1.409       .  A
C1233      C1234   1.374       .  A
C1233      H1245   1.082       .  S
C1234      H1246   1.082       .  S
C1235      C1236   1.370       .  A
C1235      H1247   1.082       .  S
C1236      H1248   1.082       .  S
C1237      C1238   1.375       .  A
C1237      H1249   1.082   1_554  S
C1238      H1250   1.082       .  S
C1239      C1240   1.375       .  A
C1239      H1251   1.082   1_554  S
C1240      H1252   1.082       .  S
C1241      C1474   1.481       .  S
C1242      C1446   1.485   1_565  S
C1243      C1657   1.481       .  S
C1244      C1838   1.481       .  S
C1255      C1256   1.404       .  A
C1255      C1260   1.406       .  A
C1255      C1461   1.483       .  S
C1256      C1257   1.401       .  A
C1256      H1261   1.084       .  S
C1257      C1258   1.405       .  A
C1257      C3290   1.477       .  S
C1258      C1259   1.404       .  A
C1258      H1262   1.083       .  S
C1259      C1260   1.405       .  A
C1259      C1309   1.478       .  S
C1260      H1263   1.083       .  S
C1264      C1265   1.417       .  A
C1264      C1269   1.411       .  A
C1264      C1586   1.505       .  S
C1265      C1266   1.408       .  A
C1265      H1270   1.082       .  S
C1266      C1267   1.398       .  A
C1266      C1420   1.478       .  S
C1267      C1268   1.392       .  A
C1267      H1271   1.081       .  S
C1268      C1269   1.398       .  A
C1268      C1339   1.471       .  S
C1269      H1272   1.081       .  S
C1273      C1274   1.404       .  A
C1273      C1278   1.404       .  A
C1273      C1433   1.480       .  S
C1274      C1275   1.406       .  A
C1274      H1279   1.084       .  S
C1275      C1276   1.400       .  A
C1275      C1349   1.472       .  S
C1276      C1277   1.400       .  A
C1276      H1280   1.084       .  S
C1277      C1278   1.402       .  A
C1277      C1400   1.470       .  S
C1278      H1281   1.084       .  S
C1282      C1283   1.403       .  A
C1282      C1287   1.403       .  A
C1282      C1558   1.484       .  S
C1283      C1284   1.407       .  A
C1283      H1288   1.083       .  S
C1284      C1285   1.410       .  A
C1284      C1380   1.482       .  S
C1285      C1286   1.407       .  A
C1285      H1289   1.084       .  S
C1286      C1287   1.405       .  A
C1286      C1329   1.483       .  S
C1287      H1290   1.083       .  S
C1291      C1292   1.402       .  A
C1291      C1296   1.402       .  A
C1291      C1489   1.475       .  S
C1292      C1293   1.402       .  A
C1292      H1297   1.083       .  S
C1293      C1294   1.402       .  A
C1293      C1324   1.475       .  S
C1294      C1295   1.404       .  A
C1294      H1298   1.083       .  S
C1295      C1296   1.404       .  A
C1295      C1416   1.476       .  S
C1296      H1299   1.084       .  S
C1300      C1301   1.407       .  A
C1300      C1305   1.407       .  A
C1300      C1614   1.489       .  S
C1301      C1302   1.404       .  A
C1301      H1306   1.084       .  S
C1302      C1303   1.404       .  A
C1302      C1395   1.478       .  S
C1303      C1304   1.405       .  A
C1303      H1307   1.084       .  S
C1304      C1305   1.407       .  A
C1304      C1317   1.479       .  S
C1305      H1308   1.084       .  S
C1309      C1346   1.461       .  S
C1309      N1327   1.351       .  A
N1310      N1327   1.325       .  A
N1310      N1332   1.321       .  A
N1310     Co1347   2.094       .  S
C1311      C1349   1.461       .  S
C1311      H1356   1.082       .  S
C1311      N1336   1.340       .  A
H1312      C1353   1.082       .  S
C1313      C1317   1.463       .  S
C1313      H1342   1.082       .  S
C1313      N1337   1.344       .  A
Co1314     N1332   2.086       .  S
Co1314     N1322   2.077       .  S
Co1314     N1354   2.077       .  S
Co1314     N1330   2.078       .  S
Co1314    Cl1358   2.464       .  S
N1315      C1353   1.337       .  A
N1315      N1322   1.320       .  A
N1315     Co1316   2.077       .  S
Co1316     N1319   2.095       .  S
Co1316     N1336   2.088       .  S
Co1316     N1323   2.084       .  S
Co1316    Cl1358   2.437       .  S
C1317      N1355   1.351       .  A
N1318      N1325   1.321       .  A
N1318      N1348   1.326       .  A
N1318     Co1351   2.084       .  S
N1319      N1337   1.321       .  A
N1319      N1355   1.325       .  A
N1320      C1349   1.348       .  A
N1320      N1330   1.324       .  A
H1321      C1346   1.082       .  S
N1322      N1343   1.324       .  A
N1323      N1341   1.319       .  A
N1323      N1328   1.324       .  A
C1324      C1352   1.460       .  S
C1324      N1328   1.350       .  A
N1325      C1340   1.339       .  A
N1325     Co1347   2.087       .  S
C1326      C1329   1.460       .  S
C1326      H1360   1.081       .  S
C1326      N1354   1.339       .  A
C1329      N1350   1.354       .  A
N1330      N1336   1.321       .  A
N1331      C1357   1.337       .  A
N1331      N1333   1.321       .  A
N1331     Co1347   2.085       .  S
N1332      C1346   1.342       .  A
N1333      N1361   1.325       .  A
N1333     Co1351   2.080       .  S
H1334      C1357   1.081       .  S
H1335      C1352   1.081       .  S
N1337     Co1351   2.091       .  S
N1338      N1350   1.328       .  A
N1338      N1354   1.319       .  A
N1338     Co1347   2.099       .  S
C1339      C1353   1.458       .  S
C1339      N1343   1.349       .  A
C1340      C1359   1.460       .  S
C1340      H1344   1.081       .  S
N1341      C1352   1.341       .  A
N1341     Co1351   2.078       .  S
C1345      C1357   1.460       .  S
C1345      C1373   1.473       .  S
C1345      N1361   1.348       .  A
Co1347    Cl1358   2.439       .  S
N1348      C1359   1.351       .  A
Co1351    Cl1358   2.468       .  S
C1359      C1364   1.478       .  S
C1362      C1363   1.406       .  A
C1362      C1367   1.403       .  A
C1362      C1530   1.483       .  S
C1363      C1364   1.407       .  A
C1363      H1368   1.084       .  S
C1364      C1365   1.404       .  A
C1365      C1366   1.401       .  A
C1365      H1369   1.083       .  S
C1366      C1367   1.402       .  A
C1366      C1388   1.475       .  S
C1367      H1370   1.083       .  S
C1371      C1372   1.409       .  A
C1371      C1376   1.406       .  A
C1371      C1629   1.487       .  S
C1372      C1373   1.406       .  A
C1372      H1377   1.083       .  S
C1373      C1374   1.398       .  A
C1374      C1375   1.397       .  A
C1374      H1378   1.083       .  S
C1375      C1376   1.399       .  A
C1375      C1430   1.471       .  S
C1376      H1379   1.084       .  S
C1380      C1417   1.464       .  S
C1380      N1398   1.351       .  A
N1381      N1398   1.326       .  A
N1381      N1403   1.319       .  A
N1381     Co1418   2.091       .  S
C1382      C1420   1.460       .  S
C1382      H1427   1.081       .  S
H1383      C1424   1.081       .  S
C1384      C3268   1.462   1_455  S
C1384      H1413   1.081       .  S
C1384      N1408   1.341       .  A
Co1385     N1403   2.087       .  S
Co1385     N1393   2.093       .  S
Co1385     N1425   2.084       .  S
Co1385     N1401   2.085       .  S
Co1385    Cl1429   2.471       .  S
N1386      C3304   1.339       .  A
N1386      N1393   1.321   1_655  A
N1386     Co3267   2.084       .  S
Co1387     N3266   2.080       .  S
Co1387     N3270   2.084       .  S
Co1387     N1407   2.074       .  S
Co1387     N1394   2.085       .  S
Co1387    Cl3309   2.431       .  S
C1388      C3264   1.459       .  S
C1388      N1426   1.351       .  A
N1389      N1396   1.320       .  A
N1389      N1419   1.324       .  A
N1389     Co1422   2.083       .  S
N1390      N1408   1.318       .  A
N1390      N3306   1.324   1_455  A
N1390     Co3267   2.082   1_455  S
N1391      C3300   1.350   1_455  A
H1392      C1417   1.081       .  S
N1393      N1414   1.327       .  A
N1394      N3292   1.319       .  A
C1395      C3303   1.463       .  S
C1395      N1399   1.350       .  A
N1396      C1411   1.336       .  A
N1396     Co1418   2.077       .  S
C1397      C1400   1.461       .  S
C1397      H1431   1.082       .  S
C1400      N1421   1.349       .  A
N1401      N3287   1.319   1_455  A
N1402      N1404   1.320       .  A
N1402     Co1418   2.088       .  S
N1403      C1417   1.342       .  A
N1404     Co1422   2.086       .  S
H1405      C1428   1.081       .  S
H1406      C1423   1.082       .  S
N1407      N3281   1.319       .  A
N1408     Co1422   2.080       .  S
N1409      N1425   1.320       .  A
N1409     Co1418   2.086       .  S
C1410      C3137   1.477       .  S
C1410      C3304   1.457       .  S
C1410      N1414   1.353   1_655  A
C1411      C1430   1.459       .  S
C1411      H1415   1.081       .  S
N1412      N3274   1.320       .  A
N1412     Co1422   2.087       .  S
C1416      C1428   1.459       .  S
C1416      N1432   1.351       .  A
Co1418    Cl1429   2.433       .  S
N1419      C1430   1.350       .  A
C1420      N3271   1.352       .  A
Co1422    Cl1429   2.469       .  S
C1423      C3275   1.466   1_455  S
C1424      C3290   1.458       .  S
C1424      N3266   1.339       .  A
N1426      N3270   1.324       .  A
Cl1429    Co3267   2.429   1_455  S
C1433      C1434   1.410       .  A
C1433      C1438   1.404       .  A
C1434      C1435   1.401       .  A
C1434      N1439   1.439       .  S
C1435      C1436   1.402       .  A
C1435      H1440   1.084       .  S
C1436      C1437   1.413       .  A
C1436      C1441   1.487       .  S
C1437      C1438   1.411       .  A
C1437      N1442   1.437       .  S
C1438      H1443   1.084       .  S
N1439      H1459   1.046       .  S
N1439      H1460   1.046       .  S
C1441      C1444   1.404       .  A
N1442      H1457   1.046       .  S
C1444      C1445   1.404       .  A
C1444      H1449   1.084       .  S
C1445      N1450   1.438       .  S
C1446      C1447   1.400   1_545  A
C1447      C1448   1.403   1_565  A
C1447      H1451   1.084       .  S
C1448      N1452   1.438   1_545  S
N1450      H1453   1.045       .  S
N1450      H1454   1.043       .  S
N1452      H1455   1.046       .  S
N1452      H1456   1.045       .  S
C1461      C1462   1.410       .  A
C1461      C1466   1.404       .  A
C1462      C1463   1.406       .  A
C1462      N1467   1.431       .  S
C1463      C1464   1.403       .  A
C1463      H1468   1.084       .  S
C1464      C1465   1.409       .  A
C1464      C1469   1.478       .  S
C1465      C1466   1.400       .  A
C1465      N1470   1.439       .  S
C1466      H1471   1.084       .  S
N1467      H1487   1.046       .  S
N1467      H1488   1.045       .  S
C1469      C1472   1.403       .  A
C1469      C1476   1.418       .  A
N1470      H1485   1.046       .  S
N1470      H1486   1.046       .  S
C1472      C1473   1.399       .  A
C1472      H1477   1.084       .  S
C1473      C1474   1.414       .  A
C1473      N1478   1.439       .  S
C1474      C1475   1.401       .  A
C1475      C1476   1.399       .  A
C1475      H1479   1.084       .  S
C1476      N1480   1.439       .  S
N1478      H1481   1.045       .  S
N1478      H1482   1.043       .  S
N1480      H1483   1.046       .  S
N1480      H1484   1.042       .  S
C1489      C1490   1.411       .  A
C1489      C1494   1.401       .  A
C1490      C1491   1.404       .  A
C1490      N1495   1.437       .  S
C1491      C1492   1.399       .  A
C1491      H1496   1.084       .  S
C1492      C1493   1.411       .  A
C1492      C1497   1.474       .  S
C1493      C1494   1.404       .  A
C1493      N1498   1.438       .  S
C1494      H1499   1.084       .  S
C1497      C1500   1.401       .  A
C1497      C1504   1.408       .  A
N1498      H1513   1.046       .  S
N1498      H1514   1.046       .  S
C1500      C1501   1.399       .  A
C1500      H1505   1.084       .  S
C1501      C1502   1.416       .  A
C1501      N1506   1.438       .  S
C1502      C1503   1.402       .  A
C1503      C1504   1.403       .  A
C1503      H1507   1.084       .  S
C1504      N1508   1.438       .  S
N1506      H1509   1.045       .  S
N1506      H1510   1.043       .  S
N1508      H1511   1.046       .  S
N1508      H1512   1.046       .  S
C1517      C1518   1.413       .  A
C1517      C3402   1.403   1_455  A
C1518      C3399   1.399       .  A
C1518      N1523   1.439       .  S
C1519      C3398   1.400       .  A
C1519      C1520   1.404       .  A
C1519      H1524   1.084       .  S
C1520      C1521   1.410       .  A
C1520      C1525   1.483       .  S
C1521      C1522   1.405       .  A
C1521      N1526   1.438       .  S
C1522      C3397   1.404       .  A
C1522      H1527   1.084       .  S
N1523      H1543   1.044       .  S
N1523      H1544   1.046       .  S
C1525      C1528   1.403       .  A
C1525      C1532   1.411       .  A
N1526      H1541   1.046       .  S
N1526      H1542   1.046       .  S
C1528      C1529   1.409       .  A
C1528      H1533   1.084       .  S
C1529      C1530   1.413       .  A
C1529      N1534   1.437       .  S
C1530      C1531   1.402       .  A
C1531      C1532   1.403       .  A
C1531      H1535   1.084       .  S
C1532      N3416   1.439       .  S
N1534      H1537   1.046       .  S
N1534      H1538   1.046       .  S
N1536      C3412   1.439   1_455  S
N1536      H1539   1.046       .  S
N1536      H1540   1.046       .  S
C1545      C1546   1.407       .  A
C1545      C1550   1.402       .  A
C1546      C1547   1.401       .  A
C1546      N1551   1.432       .  S
C1547      C1548   1.403       .  A
C1547      H1552   1.084       .  S
C1548      C1549   1.414       .  A
C1548      C1553   1.485       .  S
C1549      C1550   1.407       .  A
C1549      N1554   1.438       .  S
C1550      H1555   1.084       .  S
N1551      H1571   1.045       .  S
N1551      H1572   1.046       .  S
C1553      C1556   1.402       .  A
C1553      C1560   1.414       .  A
N1554      H1569   1.046       .  S
N1554      H1570   1.046       .  S
C1556      C1557   1.403       .  A
C1556      H1561   1.084       .  S
C1557      C1558   1.409       .  A
C1557      N1562   1.432       .  S
C1558      C1559   1.403       .  A
C1559      C1560   1.408       .  A
C1559      H1563   1.084       .  S
C1560      N1564   1.438       .  S
N1562      H1565   1.046       .  S
N1562      H1566   1.046       .  S
N1564      H1567   1.046       .  S
N1564      H1568   1.046       .  S
C1573      C3454   1.415   1_455  A
C1573      C1578   1.406       .  A
C1574      C3453   1.416       .  A
C1574      C1575   1.407       .  A
C1574      N1579   1.437       .  S
C1575      C1576   1.411       .  A
C1575      H1580   1.082       .  S
C1576      C1577   1.417       .  A
C1576      C1581   1.502       .  S
C1577      C3458   1.398       .  A
C1577      N3462   1.440       .  S
C1578      C3457   1.398   1_455  A
C1578      H1583   1.085       .  S
N1579      H1599   1.042       .  S
N1579      H1600   1.045       .  S
C1581      C1584   1.404       .  A
C1581      C1588   1.417       .  A
N1582      C3457   1.440   1_455  S
N1582      H1597   1.046       .  S
N1582      H3478   1.046       .  S
C1584      C1585   1.403       .  A
C1584      H1589   1.083       .  S
C1585      C1586   1.420       .  A
C1585      N1590   1.438       .  S
C1586      C1587   1.409       .  A
C1587      C1588   1.409       .  A
C1587      H1591   1.082       .  S
C1588      N1592   1.438       .  S
N1590      H1593   1.044       .  S
N1590      H1594   1.045       .  S
N1592      H1595   1.046       .  S
N1592      H3476   1.045       .  S
H1596      N3472   1.046       .  S
H1598      N3462   1.046       .  S
C1601      C1606   1.402   1_545  A
C1602      C1603   1.405       .  A
C1602      N1607   1.438       .  S
C1603      C1604   1.405       .  A
C1603      H1608   1.084       .  S
C1604      C1605   1.414       .  A
C1604      C1609   1.495       .  S
C1605      N1610   1.438       .  S
C1606      H1611   1.084       .  S
N1607      H1628   1.046       .  S
C1609      C1612   1.404       .  A
C1609      C1616   1.414       .  A
N1610      H1625   1.046       .  S
N1610      H1626   1.045       .  S
C1612      C1613   1.404       .  A
C1613      C1614   1.413       .  A
C1613      N1618   1.438       .  S
C1614      C1615   1.405       .  A
C1615      C1616   1.413       .  A
C1615      H1619   1.084       .  S
C1616      N1620   1.437       .  S
N1618      H1622   1.046       .  S
N1620      H1623   1.046       .  S
N1620      H1624   1.046       .  S
C1629      C1630   1.413       .  A
C1629      C1634   1.406       .  A
C1630      C1631   1.409       .  A
C1630      N1635   1.437       .  S
C1631      C1632   1.405       .  A
C1631      H1636   1.084       .  S
C1632      C1633   1.408       .  A
C1632      C1637   1.480       .  S
C1633      C1634   1.398       .  A
C1633      N1638   1.439       .  S
C1634      H1639   1.083       .  S
N1635      H1655   1.045       .  S
N1635      H1656   1.046       .  S
C1637      C1640   1.405       .  A
C1637      C1644   1.410       .  A
N1638      H1653   1.046       .  S
N1638      H1654   1.046       .  S
C1640      C1641   1.406       .  A
C1640      H1645   1.084       .  S
C1641      C1642   1.409       .  A
C1641      N1646   1.437       .  S
C1642      C1643   1.400       .  A
C1643      C1644   1.402       .  A
C1643      H1647   1.084       .  S
C1644      N1648   1.438       .  S
N1646      H1649   1.046       .  S
N1646      H1650   1.045       .  S
N1648      H1651   1.046       .  S
N1648      H1652   1.046       .  S
C1657      C1658   1.416       .  A
C1658      C1659   1.396       .  A
C1658      N1663   1.439       .  S
C1659      H1664   1.084       .  S
C1660      C1661   1.410       .  A
C1660      C1665   1.476       .  S
C1661      C1662   1.404       .  A
C1661      N1666   1.437       .  S
C1662      H1667   1.084       .  S
N1663      H1683   1.044       .  S
N1663      H1684   1.046       .  S
C1665      C1668   1.402       .  A
C1665      C1672   1.408       .  A
N1666      H1681   1.046       .  S
N1666      H1682   1.045       .  S
C1668      C1669   1.402       .  A
C1668      H1673   1.084       .  S
C1669      C1670   1.411       .  A
C1669      N1674   1.438       .  S
C1670      C1671   1.405       .  A
C1671      C1672   1.405       .  A
C1671      H1675   1.084       .  S
C1672      N1676   1.437       .  S
N1674      H1677   1.046       .  S
N1674      H1678   1.046       .  S
N1676      H1679   1.046       .  S
N1676      H1680   1.046       .  S
C1685      C1686   1.412       .  A
C1685      C1690   1.404       .  A
C1686      C1687   1.410       .  A
C1686      N1691   1.437       .  S
C1687      C1688   1.403       .  A
C1687      H1692   1.084       .  S
C1688      C1689   1.407       .  A
C1688      C1693   1.476       .  S
C1689      C1690   1.401       .  A
C1689      N1694   1.439       .  S
C1690      H1695   1.084       .  S
N1691      H1711   1.046       .  S
N1691      H1712   1.046       .  S
C1693      C1696   1.401       .  A
C1693      C1700   1.410       .  A
N1694      H1709   1.046       .  S
N1694      H1710   1.045       .  S
C1696      C1697   1.399       .  A
C1696      H1701   1.084       .  S
C1697      C1698   1.407       .  A
C1697      N1702   1.433       .  S
C1698      C1699   1.405       .  A
C1699      C1700   1.408       .  A
C1699      H1703   1.084       .  S
C1700      N1704   1.438       .  S
N1702      H1705   1.046       .  S
N1702      H1706   1.045       .  S
N1704      H1707   1.046       .  S
N1704      H1708   1.045       .  S
C1713      C1714   1.412       .  A
C1713      C1718   1.403       .  A
C1714      C1715   1.406       .  A
C1714      N1719   1.438       .  S
C1715      C1716   1.401       .  A
C1715      H1720   1.084       .  S
C1716      C1717   1.411       .  A
C1716      C1721   1.480       .  S
C1717      C1718   1.404       .  A
C1718      H1723   1.084       .  S
N1719      H1739   1.046       .  S
N1719      H1740   1.046       .  S
C1721      C1724   1.402       .  A
C1721      C1728   1.409       .  A
N1722      H1737   1.046       .  S
N1722      H1738   1.046   1_545  S
C1724      C1725   1.400       .  A
C1724      H1729   1.084       .  S
C1725      N1730   1.438       .  S
C1726      C1727   1.404       .  A
C1727      H1731   1.084       .  S
C1728      N1732   1.437       .  S
N1730      H1733   1.046       .  S
N1732      H1736   1.045       .  S
C1741      C1742   1.408       .  A
C1741      C1746   1.400       .  A
C1742      C1743   1.402       .  A
C1742      N1747   1.438       .  S
C1743      C1744   1.403       .  A
C1743      H1748   1.084       .  S
C1744      C1745   1.411       .  A
C1744      C1749   1.477       .  S
C1745      C1746   1.403       .  A
C1745      N1750   1.438       .  S
C1746      H1751   1.084       .  S
N1747      H1767   1.045       .  S
N1747      H1768   1.046       .  S
C1749      C1752   1.404       .  A
C1749      C1756   1.409       .  A
N1750      H1765   1.046       .  S
N1750      H1766   1.046       .  S
C1752      C1753   1.407       .  A
C1752      H1757   1.084       .  S
C1753      C1754   1.410       .  A
C1753      N1758   1.437       .  S
C1754      C1755   1.404       .  A
C1755      C1756   1.399       .  A
C1755      H1759   1.084       .  S
C1756      N1760   1.439       .  S
N1758      H1761   1.046       .  S
N1758      H1762   1.046       .  S
N1760      H1763   1.046       .  S
N1760      H1764   1.046       .  S
C1769      C3650   1.417       .  A
C1769      C1774   1.404       .  A
C1770      C3649   1.417       .  A
C1770      C1771   1.397       .  A
C1770      N1775   1.438       .  S
C1771      C1772   1.400       .  A
C1771      H1776   1.084       .  S
C1772      C3653   1.406       .  A
C1772      C1777   1.473       .  S
C1773      C3652   1.409       .  A
C1773      C1774   1.407       .  A
C1773      N1778   1.438       .  S
C1774      H1779   1.084   1_655  S
N1775      H1795   1.044       .  S
N1775      H1796   1.046       .  S
C1777      C1780   1.401       .  A
C1777      C1784   1.408       .  A
N1778      H1793   1.046   1_655  S
N1778      H1794   1.045   1_655  S
C1780      C1781   1.407       .  A
C1780      H1785   1.084       .  S
C1781      C1782   1.410       .  A
C1781      N1786   1.437       .  S
C1782      C1783   1.403       .  A
C1783      C1784   1.400       .  A
C1783      H1787   1.084       .  S
C1784      N3668   1.439       .  S
N1786      H1789   1.046       .  S
N1786      H1790   1.046       .  S
N1788      C3664   1.439   1_455  S
N1788      H1791   1.046       .  S
N1788      H1792   1.045       .  S
C1797      C1798   1.408       .  A
C1797      C1802   1.400       .  A
C1798      C1799   1.405       .  A
C1798      N1803   1.437       .  S
C1799      C1800   1.405       .  A
C1799      H1804   1.083       .  S
C1800      C1801   1.413       .  A
C1800      C1805   1.487       .  S
C1801      C1802   1.404       .  A
C1801      N1806   1.438       .  S
C1802      H1807   1.084       .  S
N1803      H1823   1.046       .  S
N1803      H1824   1.046       .  S
C1805      C1808   1.404       .  A
C1805      C1812   1.412       .  A
N1806      H1821   1.046       .  S
N1806      H1822   1.046       .  S
C1808      C1809   1.402       .  A
C1808      H1813   1.084       .  S
C1809      C1810   1.410       .  A
C1809      N1814   1.438       .  S
C1810      C1811   1.405       .  A
C1811      C1812   1.408       .  A
C1811      H1815   1.084       .  S
C1812      N1816   1.438       .  S
N1814      H1817   1.046       .  S
N1814      H1818   1.046       .  S
N1816      H1819   1.046       .  S
N1816      H1820   1.045       .  S
C1825      C1826   1.412       .  A
C1825      C1830   1.401       .  A
C1826      C1827   1.405       .  A
C1826      N1831   1.438       .  S
C1827      C1828   1.401       .  A
C1827      H1832   1.084       .  S
C1828      C1829   1.413       .  A
C1828      C1833   1.480       .  S
C1829      C1830   1.403       .  A
C1829      N1834   1.438       .  S
C1830      H1835   1.084       .  S
N1831      H1851   1.044       .  S
N1831      H1852   1.046       .  S
C1833      C1836   1.402       .  A
C1833      C1840   1.411       .  A
N1834      H1849   1.046       .  S
N1834      H1850   1.046       .  S
C1836      C1837   1.397       .  A
C1836      H1841   1.084       .  S
C1837      C1838   1.414       .  A
C1837      N1842   1.438       .  S
C1838      C1839   1.403       .  A
C1839      C1840   1.405       .  A
C1839      H1843   1.084       .  S
C1840      N1844   1.438       .  S
N1842      H1845   1.046       .  S
N1842      H1846   1.043       .  S
N1844      H1847   1.046       .  S
N1844      H1848   1.046       .  S
C1853      C1854   1.417       .  A
C1853      C1858   1.405       .  A
C1854      C1855   1.401       .  A
C1854      N1859   1.439       .  S
C1855      C1856   1.400       .  A
C1855      H1860   1.084       .  S
C1856      C1857   1.408       .  A
C1856      C1861   1.478       .  S
C1857      C1858   1.405       .  A
C1857      N1862   1.437       .  S
C1858      H1863   1.084       .  S
N1859      H1879   1.046       .  S
N1859      H1880   1.046       .  S
C1861      C3744   1.402       .  A
C1861      C1868   1.409       .  A
N1862      H1877   1.046       .  S
N1862      H1878   1.046       .  S
C1864      C3741   1.401       .  A
C1864      C1865   1.395   1_655  A
C1864      H1869   1.084   1_655  S
C1865      C1866   1.414       .  A
C1865      N1870   1.439       .  S
C1866      C3747   1.404   1_455  A
C1867      C3746   1.403       .  A
C1867      C1868   1.405       .  A
C1867      H1871   1.084       .  S
C1868      N1872   1.437       .  S
N1870      H1873   1.046       .  S
N1870      H1874   1.043       .  S
N1872      H1875   1.046       .  S
N1872      H1876   1.046       .  S
C1881      C1882   1.401       .  A
C1881      C1886   1.404       .  A
C1881      C2793   1.480       .  S
C1882      C1883   1.401       .  A
C1882      H1887   1.084       .  S
C1883      C1884   1.402       .  A
C1883      C1917   1.470       .  S
C1884      C1885   1.404       .  A
C1884      H1888   1.084       .  S
C1885      C1886   1.402       .  A
C1885      C2036   1.474       .  S
C1886      H1889   1.084       .  S
C1890      C1891   1.403       .  A
C1890      C1895   1.401       .  A
C1890      C2765   1.477       .  S
C1891      C1892   1.405       .  A
C1891      H1896   1.084       .  S
C1892      C1893   1.402       .  A
C1892      C1967   1.474       .  S
C1893      C1894   1.401       .  A
C1893      H1897   1.083       .  S
C1894      C1895   1.402       .  A
C1894      C2014   1.472       .  S
C1895      H1898   1.083       .  S
C1899      C1900   1.396       .  A
C1899      C1904   1.401       .  A
C1899      C2750   1.473       .  S
C1900      C1901   1.401       .  A
C1900      H1905   1.083       .  S
C1901      C1902   1.403       .  A
C1901      C1937   1.472       .  S
C1902      C1903   1.407       .  A
C1902      H1906   1.084       .  S
C1903      C1904   1.402       .  A
C1903      C2006   1.473       .  S
C1904      H1907   1.083       .  S
C1908      C1909   1.404       .  A
C1908      C1913   1.406       .  A
C1908      C2722   1.486       .  S
C1909      C1910   1.404       .  A
C1909      H1914   1.084       .  S
C1910      C1911   1.407       .  A
C1910      C2021   1.478       .  S
C1911      C1912   1.405       .  A
C1911      H1915   1.084       .  S
C1912      C1913   1.405       .  A
C1913      H1916   1.084       .  S
N1918      N1935   1.325       .  A
N1918      N1940   1.320       .  A
N1918     Co1955   2.090       .  S
C1919      C2897   1.458       .  S
C1919      H1964   1.082       .  S
C1919      N2884   1.339   1_545  A
H1920      C1961   1.081       .  S
C1921      C2865   1.458       .  S
C1921      H1950   1.082       .  S
C1921      N1945   1.338       .  A
Co1922     N1940   2.082       .  S
Co1922     N1930   2.074       .  S
Co1922     N1962   2.072       .  S
Co1922     N1938   2.084       .  S
Co1922    Cl1966   2.461       .  S
N1923      C2901   1.336       .  A
N1923      N1930   1.319       .  A
N1923     Co1924   2.084       .  S
Co1924     N1927   2.084       .  S
Co1924     N1944   2.081       .  S
Co1924     N1931   2.089       .  S
Co1924    Cl1966   2.435       .  S
C1925      C2861   1.461   1_545  S
C1925      N1963   1.351       .  A
N1926      N1933   1.319       .  A
N1926      N1956   1.325       .  A
N1926     Co1959   2.082       .  S
N1927      N1945   1.319       .  A
N1927      N2903   1.324       .  A
N1928      C1957   1.350       .  A
N1928      N1938   1.325       .  A
H1929      C1954   1.082       .  S
N1930      N1951   1.326       .  A
N1931      N1949   1.320       .  A
N1931      N1936   1.324       .  A
C1932      C1960   1.461       .  S
C1932      C2941   1.478       .  S
C1932      N1936   1.351       .  A
N1933      C1948   1.340       .  A
N1933     Co1955   2.084       .  S
C1934      C1937   1.457       .  S
C1934      H1968   1.081       .  S
C1934      N1962   1.336       .  A
C1937      N1958   1.351       .  A
N1938      N1944   1.320       .  A
N1939      C1965   1.337       .  A
N1939      N1941   1.320       .  A
N1939     Co1955   2.083       .  S
N1940      C1954   1.341       .  A
N1941      N1969   1.326       .  A
N1941     Co1959   2.082       .  S
H1942      C1965   1.081       .  S
H1943      C1960   1.081       .  S
N1944      C2859   1.339       .  A
N1945     Co1959   2.075       .  S
N1946      N1958   1.326       .  A
N1946      N1962   1.319       .  A
N1946     Co1955   2.088       .  S
C1947      C1961   1.459       .  S
C1947      C1983   1.471       .  S
C1947      N2891   1.349   1_545  A
N1949      C1960   1.342       .  A
N1949     Co1959   2.084       .  S
N1951      C2887   1.349       .  A
C1953      C1965   1.458       .  S
C1953      C1972   1.472       .  S
C1953      N1969   1.350       .  A
Co1955    Cl1966   2.439       .  S
C1957      C2859   1.459       .  S
C1957      C2932   1.472       .  S
Co1959    Cl1966   2.464       .  S
C1961      N2863   1.335   1_545  A
N1963      N2867   1.325   1_545  A
C1970      C1971   1.404       .  A
C1970      C1975   1.403       .  A
C1970      C2694   1.473       .  S
C1971      C1972   1.403       .  A
C1971      H1976   1.084       .  S
C1972      C1973   1.401       .  A
C1973      C1974   1.400       .  A
C1973      H1977   1.083       .  S
C1974      C1975   1.400       .  A
C1974      C2056   1.471       .  S
C1975      H1978   1.084       .  S
C1979      C1980   1.402       .  A
C1979      C1984   1.410       .  A
C1979      C2653   1.482       .  S
C1980      C1981   1.398       .  A
C1980      H1985   1.084       .  S
C1981      C1982   1.400       .  A
C1981      C2046   1.472       .  S
C1982      H1986   1.081       .  S
C1988      C1989   1.406       .  A
C1988      C1993   1.404       .  A
C1988      C2625   1.483       .  S
C1989      C1990   1.404       .  A
C1989      H1994   1.083       .  S
C1990      C1991   1.403       .  A
C1990      C2026   1.474       .  S
C1991      C1992   1.402       .  A
C1991      H1995   1.084       .  S
C1992      C1993   1.401       .  A
C1992      C2897   1.473       .  S
C1993      H1996   1.084       .  S
C1997      C1998   1.399       .  A
C1997      C2002   1.403       .  A
C1997      C2610   1.475       .  S
C1998      C1999   1.399       .  A
C1998      H2003   1.084       .  S
C1999      C2000   1.405       .  A
C1999      C2042   1.473       .  S
C2000      C2001   1.405       .  A
C2000      H2004   1.083       .  S
C2001      C2002   1.404       .  A
C2001      C2872   1.477       .  S
C2002      H2005   1.083       .  S
C2006      C2043   1.463       .  S
C2006      N2024   1.347       .  A
N2007      N2024   1.323       .  A
N2007      N2029   1.319       .  A
N2007     Co2044   2.077       .  S
C2008      C2046   1.456       .  S
C2008      H2053   1.081       .  S
C2008      N2033   1.335       .  A
H2009      C2050   1.081       .  S
C2010      C2014   1.459       .  S
C2010      H2039   1.081       .  S
C2010      N2034   1.339       .  A
Co2011     N2029   2.081       .  S
Co2011     N2019   2.088       .  S
Co2011     N2051   2.090       .  S
Co2011     N2027   2.084       .  S
Co2011    Cl2055   2.467       .  S
N2012      C2050   1.338       .  A
N2012      N2019   1.320       .  A
N2012     Co2013   2.077       .  S
Co2013     N2016   2.079       .  S
Co2013     N2033   2.071       .  S
Co2013     N2020   2.083       .  S
Co2013    Cl2055   2.431       .  S
C2014      N2052   1.349       .  A
N2015      N2022   1.319       .  A
N2015      N2045   1.325       .  A
N2015     Co2048   2.085       .  S
N2016      N2034   1.318       .  A
N2016      N2052   1.323       .  A
N2017      C2046   1.352       .  A
N2017      N2027   1.325       .  A
H2018      C2043   1.082       .  S
N2019      N2040   1.325       .  A
N2020      N2038   1.320       .  A
N2020      N2025   1.324       .  A
C2021      C2049   1.465       .  S
C2021      N2025   1.349       .  A
N2022      C2037   1.336       .  A
N2022     Co2044   2.074       .  S
C2023      C2026   1.463       .  S
C2023      H2057   1.082       .  S
C2023      N2051   1.344       .  A
C2026      N2047   1.348       .  A
N2027      N2033   1.320       .  A
N2028      C2054   1.337       .  A
N2028      N2030   1.319       .  A
N2028     Co2044   2.072       .  S
N2029      C2043   1.341       .  A
N2030      N2058   1.324       .  A
N2030     Co2048   2.085       .  S
H2031      C2054   1.081       .  S
H2032      C2049   1.082       .  S
N2034     Co2048   2.075       .  S
N2035      N2047   1.323       .  A
N2035      N2051   1.320       .  A
N2035     Co2044   2.080       .  S
C2036      C2050   1.457       .  S
C2036      N2040   1.352       .  A
C2037      C2056   1.457       .  S
C2037      H2041   1.081       .  S
N2038      C2049   1.343       .  A
N2038     Co2048   2.092       .  S
C2042      C2054   1.456       .  S
C2042      N2058   1.352       .  A
Co2044    Cl2055   2.429       .  S
N2045      C2056   1.351       .  A
Co2048    Cl2055   2.465       .  S
N2059      C2064   1.353       .  A
N2059      C2063   1.353       .  A
N2059      H2091   1.033       .  S
N2060      C2067   1.350       .  A
N2060      C2068   1.350       .  A
N2061      C2066   1.353       .  A
N2061      C2065   1.353       .  A
N2061      H2092   1.036       .  S
N2062      C2069   1.348       .  A
N2062      C2070   1.347       .  A
C2063      C2071   1.388       .  A
C2063      C2079   1.419       .  A
C2064      C2080   1.418       .  A
C2064      C2072   1.387       .  A
C2065      C2073   1.387       .  A
C2065      C2082   1.416       .  A
C2066      C2081   1.417       .  A
C2066      C2074   1.388       .  A
C2067      C2079   1.414       .  A
C2067      C3015   1.387       .  A
C2068      C2082   1.411       .  A
C2068      C3016   1.385       .  A
C2069      C2077   1.387       .  A
C2069      C2080   1.408       .  A
C2070      C2078   1.386       .  A
C2070      C2081   1.405       .  A
C2071      C2072   1.375       .  A
C2071      H2083   1.082       .  S
C2072      H2084   1.083       .  S
C2073      C2074   1.372       .  A
C2073      H2085   1.082       .  S
C2074      H2086   1.082       .  S
C2075      C3007   1.387   1_545  A
C2075      C2076   1.376       .  A
C2075      H2087   1.082       .  S
C2076      C3008   1.385   1_545  A
C2076      H2088   1.082       .  S
C2077      C2078   1.373       .  A
C2077      H2089   1.082       .  S
C2078      H2090   1.082       .  S
C2079      C2541   1.486       .  S
C2080      C2582   1.478       .  S
C2081      C2737   1.478       .  S
C2082      C2666   1.487       .  S
N2093      C2098   1.355       .  A
N2093      C2097   1.353       .  A
N2093      H2125   1.039       .  S
N2094      C2101   1.345       .  A
N2094      C2102   1.349       .  A
N2095      C2100   1.348       .  A
N2095      C2099   1.352       .  A
N2095      H2126   1.039   1_556  S
N2096      C2103   1.348       .  A
N2096      C2104   1.350       .  A
C2097      C2105   1.388       .  A
C2097      C2113   1.416       .  A
C2098      C2114   1.418       .  A
C2098      C2106   1.387       .  A
C2099      C2107   1.388       .  A
C2099      C2116   1.410       .  A
C2100      C2115   1.410       .  A
C2100      C2108   1.386       .  A
C2101      C2113   1.406       .  A
C2101      C2109   1.387       .  A
C2102      C2116   1.407   1_554  A
C2102      C2110   1.385       .  A
C2103      C2114   1.410       .  A
C2104      C2115   1.410   1_554  A
C2105      C2106   1.374       .  A
C2105      H2117   1.082       .  S
C2106      H2118   1.082       .  S
C2107      C2108   1.373       .  A
C2107      H2119   1.081       .  S
C2108      H2120   1.083       .  S
C2109      C2110   1.378       .  A
C2109      H2121   1.082       .  S
C2110      H2122   1.082   1_554  S
C2111      C2112   1.380       .  A
C2111      H2123   1.082       .  S
C2112      H2124   1.082   1_554  S
C2113      C2681   1.476       .  S
C2114      C2709   1.492       .  S
C2115      C2513   1.486       .  S
C2116      C2485   1.484       .  S
N2127      C2132   1.355       .  A
N2127      C2131   1.355       .  A
N2127      H2159   1.035       .  S
N2128      C2135   1.350       .  A
N2128      C2136   1.351       .  A
N2129      C2134   1.353       .  A
N2129      C2133   1.352       .  A
N2129      H2160   1.031       .  S
N2130      C2137   1.348       .  A
N2130      C2138   1.350       .  A
C2131      C2139   1.388       .  A
C2131      C2147   1.421       .  A
C2132      C2148   1.419       .  A
C2132      C2140   1.387       .  A
C2133      C2141   1.389       .  A
C2133      C2150   1.419       .  A
C2134      C2149   1.419       .  A
C2134      C2142   1.388       .  A
C2135      C2147   1.414       .  A
C2135      C2143   1.388       .  A
C2136      C2150   1.412       .  A
C2136      C2144   1.385       .  A
C2137      C2148   1.410       .  A
C2138      C2149   1.410       .  A
C2139      C2140   1.375       .  A
C2139      H2151   1.082       .  S
C2140      H2152   1.082       .  S
C2141      C2142   1.368       .  A
C2141      H2153   1.082       .  S
C2142      H2154   1.082       .  S
C2143      C2144   1.374       .  A
C2143      H2155   1.082       .  S
C2144      H2156   1.082       .  S
C2145      C2146   1.373       .  A
C2145      H2157   1.082       .  S
C2146      H2158   1.082       .  S
C2147      C2638   1.490       .  S
C2148      C2806   1.483       .  S
C2149      C2457   1.484       .  S
C2150      C2442   1.484       .  S
N2161      C2166   1.355       .  A
N2161      C2165   1.352       .  A
N2161      H2193   1.031       .  S
N2162      C2169   1.350   1_554  A
N2162      C2170   1.351       .  A
N2163      C2168   1.352       .  A
N2163      C2167   1.354       .  A
N2163      H2194   1.035       .  S
N2164      C2171   1.351   1_554  A
N2164      C2172   1.350       .  A
C2165      C2173   1.389       .  A
C2165      C2181   1.422       .  A
C2166      C2182   1.420       .  A
C2166      C2174   1.387       .  A
C2167      C2175   1.388       .  A
C2167      C2184   1.417       .  A
C2168      C2183   1.416       .  A
C2168      C2176   1.388       .  A
C2169      C2181   1.415       .  A
C2169      C2177   1.388   1_556  A
C2170      C2184   1.412       .  A
C2170      C2178   1.385       .  A
C2171      C3119   1.387   1_556  A
C2171      C2182   1.414       .  A
C2172      C3120   1.385       .  A
C2172      C2183   1.410       .  A
C2173      C2174   1.375       .  A
C2173      H2185   1.082       .  S
C2174      H2186   1.082       .  S
C2175      C2176   1.371       .  A
C2175      H2187   1.082       .  S
C2176      H2188   1.082       .  S
C2177      C2178   1.376       .  A
C2177      H2189   1.082   1_554  S
C2178      H2190   1.082       .  S
C2179      C3111   1.387   1_554  A
C2179      C2180   1.372       .  A
C2179      H2191   1.082   1_554  S
C2180      C3112   1.386   1_545  A
C2180      H2192   1.082       .  S
C2181      C2414   1.484       .  S
C2182      C2386   1.489       .  S
C2183      C2597   1.481       .  S
C2184      C2778   1.488       .  S
C2195      C2196   1.403       .  A
C2195      C2200   1.405       .  A
C2195      C2401   1.483       .  S
C2196      C2197   1.400       .  A
C2196      H2201   1.084       .  S
C2197      C2198   1.403       .  A
C2198      C2199   1.402       .  A
C2198      H2202   1.084       .  S
C2199      C2200   1.404       .  A
C2199      C2249   1.473       .  S
C2200      H2203   1.083       .  S
C2204      C2205   1.420       .  A
C2204      C2209   1.409       .  A
C2204      C2526   1.507       .  S
C2205      C2206   1.409       .  A
C2205      H2210   1.081       .  S
C2206      C2207   1.398       .  A
C2206      C2360   1.479       .  S
C2207      C2208   1.390       .  A
C2207      H2211   1.081       .  S
C2208      C2209   1.396       .  A
C2208      C2279   1.467       .  S
C2209      H2212   1.080       .  S
C2213      C2214   1.402       .  A
C2213      C2218   1.406       .  A
C2213      C2373   1.479       .  S
C2214      C2215   1.403       .  A
C2214      H2219   1.084       .  S
C2215      C2216   1.400       .  A
C2215      C2289   1.471       .  S
C2216      C2217   1.402       .  A
C2216      H2220   1.084       .  S
C2217      C2218   1.403       .  A
C2217      C2340   1.472       .  S
C2218      H2221   1.084       .  S
C2222      C2223   1.402       .  A
C2222      C2227   1.398       .  A
C2222      C2498   1.479       .  S
C2223      C2224   1.408       .  A
C2223      H2228   1.083       .  S
C2224      C2225   1.410       .  A
C2224      C2320   1.481       .  S
C2225      C2226   1.406       .  A
C2225      H2229   1.084       .  S
C2226      C2227   1.403       .  A
C2226      C2269   1.479       .  S
C2227      H2230   1.083       .  S
C2231      C2232   1.404       .  A
C2231      C2236   1.402       .  A
C2231      C2429   1.481       .  S
C2232      C2233   1.403       .  A
C2232      H2237   1.083       .  S
C2233      C2234   1.404       .  A
C2233      C2264   1.476       .  S
C2234      C2235   1.404       .  A
C2234      H2238   1.083       .  S
C2235      C2236   1.404       .  A
C2235      C2356   1.477       .  S
C2236      H2239   1.084       .  S
C2240      C2241   1.405       .  A
C2240      C2245   1.401       .  A
C2240      C2554   1.480       .  S
C2241      C2242   1.405       .  A
C2241      H2246   1.084       .  S
C2242      C2243   1.405       .  A
C2242      C2335   1.477       .  S
C2243      C2244   1.405       .  A
C2243      H2247   1.084       .  S
C2244      C2245   1.402       .  A
C2244      C2257   1.473       .  S
C2245      H2248   1.084       .  S
C2249      C2286   1.460       .  S
C2249      N2267   1.350       .  A
N2250      N2267   1.324       .  A
N2250      N2272   1.320       .  A
N2250     Co2287   2.085       .  S
C2251      C2289   1.460       .  S
C2251      H2296   1.082       .  S
C2251      N2276   1.340       .  A
H2252      C2293   1.081       .  S
C2253      C2257   1.463       .  S
C2253      H2282   1.082       .  S
C2253      N2277   1.342       .  A
Co2254     N2272   2.084       .  S
Co2254     N2262   2.071       .  S
Co2254     N2294   2.071       .  S
Co2254     N2270   2.078       .  S
Co2254    Cl2298   2.455       .  S
N2255      C2293   1.336       .  A
N2255      N2262   1.319       .  A
N2255     Co2256   2.073       .  S
Co2256     N2259   2.087       .  S
Co2256     N2276   2.083       .  S
Co2256     N2263   2.082       .  S
Co2256    Cl2298   2.437       .  S
C2257      N2295   1.349       .  A
N2258      N2265   1.320       .  A
N2258      N2288   1.324       .  A
N2258     Co2291   2.082       .  S
N2259      N2277   1.320       .  A
N2259      N2295   1.324       .  A
N2260      C2289   1.348       .  A
N2260      N2270   1.323       .  A
H2261      C2286   1.082       .  S
N2262      N2283   1.322       .  A
N2263      N2281   1.319       .  A
N2263      N2268   1.323       .  A
C2264      C2292   1.462       .  S
C2264      N2268   1.349       .  A
N2265      C2280   1.339       .  A
N2265     Co2287   2.081       .  S
C2266      C2269   1.458       .  S
C2266      H2300   1.081       .  S
C2266      N2294   1.336       .  A
C2269      N2290   1.353       .  A
N2270      N2276   1.320       .  A
N2271      C2297   1.335       .  A
N2271      N2273   1.320       .  A
N2271     Co2287   2.074       .  S
N2272      C2286   1.341       .  A
N2273      N2301   1.325       .  A
N2273     Co2291   2.083       .  S
H2274      C2297   1.081       .  S
H2275      C2292   1.081       .  S
N2277     Co2291   2.088       .  S
N2278      N2290   1.328       .  A
N2278      N2294   1.318       .  A
N2278     Co2287   2.093       .  S
C2279      C2293   1.457       .  S
C2279      N2283   1.348       .  A
C2280      C2299   1.459       .  S
C2280      H2284   1.081       .  S
N2281      C2292   1.342       .  A
N2281     Co2291   2.083       .  S
C2285      C2297   1.456       .  S
C2285      C2313   1.469       .  S
C2285      N2301   1.350       .  A
Co2287    Cl2298   2.440       .  S
N2288      C2299   1.350       .  A
Co2291    Cl2298   2.462       .  S
C2299      C2304   1.474       .  S
C2302      C2303   1.400       .  A
C2302      C2307   1.402       .  A
C2302      C2470   1.473       .  S
C2303      C2304   1.402       .  A
C2303      H2308   1.084       .  S
C2304      C2305   1.404       .  A
C2305      C2306   1.403       .  A
C2305      H2309   1.083       .  S
C2306      C2307   1.404       .  A
C2306      C2328   1.476       .  S
C2307      H2310   1.083       .  S
C2311      C2312   1.403       .  A
C2311      C2316   1.402       .  A
C2311      C2569   1.476       .  S
C2312      C2313   1.402       .  A
C2312      H2317   1.084       .  S
C2313      C2314   1.401       .  A
C2314      C2315   1.399       .  A
C2314      H2318   1.083       .  S
C2315      C2316   1.397       .  A
C2315      C2370   1.470       .  S
C2316      H2319   1.084       .  S
C2320      C2357   1.462       .  S
C2320      N2338   1.352       .  A
N2321      N2338   1.326       .  A
N2321      N2343   1.319       .  A
N2321     Co2358   2.095       .  S
C2322      C2360   1.460       .  S
C2322      H2367   1.081       .  S
C2322      N3287   1.332   1_545  A
H2323      C2364   1.081       .  S
C2324      H2353   1.081       .  S
C2324      N2348   1.341       .  A
Co2325     N2343   2.081       .  S
Co2325     N2333   2.087       .  S
Co2325     N2365   2.088       .  S
Co2325     N2341   2.084       .  S
Co2325    Cl2369   2.471       .  S
N2326      N2333   1.320       .  A
Co2327     N2347   2.076       .  S
Co2327     N2334   2.082   1_655  S
C2328      N2366   1.350       .  A
N2329      N2336   1.319       .  A
N2329      N2359   1.324       .  A
N2329     Co2362   2.082       .  S
N2330      N2348   1.318       .  A
N2331      N3281   1.327   1_545  A
H2332      C2357   1.081       .  S
N2333      N2354   1.325       .  A
N2334      N3279   1.323   1_455  A
C2335      N2339   1.350       .  A
N2336      C2351   1.337       .  A
N2336     Co2358   2.072       .  S
C2337      C2340   1.463       .  S
C2337      H2371   1.082       .  S
C2337      N3305   1.344   1_545  A
N2339      N3274   1.325   1_645  A
C2340      N2361   1.347       .  A
N2341      N3271   1.328       .  A
N2342      C3308   1.340       .  A
N2342      N2344   1.321       .  A
N2342     Co2358   2.094       .  S
N2343      C2357   1.341       .  A
N2344      N3312   1.327       .  A
N2344     Co2362   2.087       .  S
H2345      C2368   1.081       .  S
H2346      C2363   1.082       .  S
N2347      C3262   1.334       .  A
N2348     Co2362   2.076       .  S
N2349      N3301   1.323       .  A
N2349      N2365   1.320       .  A
N2349     Co2358   2.084       .  S
C2350      N2354   1.351       .  A
C2351      C2370   1.457       .  S
C2351      H2355   1.081       .  S
N2352      C3303   1.343       .  A
N2352     Co2362   2.090       .  S
C2356      C2368   1.463       .  S
C2356      N2372   1.349       .  A
Co2358    Cl2369   2.434       .  S
N2359      C2370   1.350       .  A
N2361      N3289   1.322   1_545  A
Co2362    Cl2369   2.468       .  S
C2363      N3292   1.342   1_545  A
N2365      C3277   1.343       .  A
C2368      N3282   1.341   1_545  A
N2372      N3284   1.324   1_545  A
C2373      C2374   1.410       .  A
C2373      C2378   1.405       .  A
C2374      C2375   1.399       .  A
C2374      N2379   1.439       .  S
C2375      C2376   1.401       .  A
C2375      H2380   1.084       .  S
C2376      C2377   1.409       .  A
C2376      C2381   1.478       .  S
C2377      C2378   1.410       .  A
C2377      N2382   1.437       .  S
C2378      H2383   1.084       .  S
N2379      H2399   1.046   1_545  S
N2379      H2400   1.046       .  S
C2381      C2384   1.403       .  A
C2381      C3328   1.408       .  A
N2382      H2397   1.045       .  S
N2382      H3338   1.046       .  S
C2384      C2385   1.403       .  A
C2384      H2389   1.084       .  S
C2385      C3326   1.417       .  A
C2385      N2390   1.438       .  S
C2386      C3325   1.416       .  A
C2386      C2387   1.400       .  A
C2387      C2388   1.402       .  A
C2387      H2391   1.084       .  S
C2388      C3321   1.414       .  A
C2388      N2392   1.438       .  S
N2390      H2393   1.045       .  S
N2390      H2394   1.044       .  S
N2392      H2395   1.046       .  S
N2392      H2396   1.045       .  S
H2398      N3322   1.045       .  S
C2401      C2402   1.409       .  A
C2401      C2406   1.404       .  A
C2402      C2403   1.405       .  A
C2402      N2407   1.431       .  S
C2403      C2404   1.404       .  A
C2403      H2408   1.084       .  S
C2404      C2405   1.410       .  A
C2404      C2409   1.480       .  S
C2405      C2406   1.401       .  A
C2405      N2410   1.439       .  S
C2406      H2411   1.084       .  S
N2407      H2427   1.046       .  S
N2407      H2428   1.045       .  S
C2409      C2412   1.404       .  A
C2409      C2416   1.418       .  A
N2410      H2425   1.046       .  S
N2410      H2426   1.046       .  S
C2412      C2413   1.400       .  A
C2412      H2417   1.084       .  S
C2413      C2414   1.414       .  A
C2413      N2418   1.438       .  S
C2414      C2415   1.401       .  A
C2415      C2416   1.400       .  A
C2415      H2419   1.084       .  S
C2416      N2420   1.439       .  S
N2418      H2421   1.045       .  S
N2418      H2422   1.043       .  S
N2420      H2423   1.046       .  S
N2420      H2424   1.041       .  S
C2429      C2430   1.412       .  A
C2429      C2434   1.403       .  A
C2430      C2431   1.404       .  A
C2430      N2435   1.438       .  S
C2431      C2432   1.400       .  A
C2431      H2436   1.084       .  S
C2432      C2433   1.411       .  A
C2432      C2437   1.478       .  S
C2433      C2434   1.405       .  A
C2433      N2438   1.438       .  S
C2434      H2439   1.084       .  S
N2435      H3395   1.046       .  S
N2435      H3396   1.046       .  S
C2437      C2440   1.402       .  A
C2437      C2444   1.409       .  A
N2438      H2453   1.046       .  S
N2438      H2454   1.046       .  S
C2440      C2441   1.401       .  A
C2440      H2445   1.084       .  S
C2441      C2442   1.415       .  A
C2441      N2446   1.438       .  S
C2442      C2443   1.402       .  A
C2443      C2444   1.403       .  A
C2443      H2447   1.084       .  S
C2444      N2448   1.438       .  S
N2446      H2449   1.045       .  S
N2446      H2450   1.044       .  S
N2448      H2451   1.046       .  S
N2448      H2452   1.046       .  S
H2455      N3375   1.046       .  S
H2456      N3375   1.045       .  S
C2457      C2458   1.415       .  A
C2458      N2463   1.439       .  S
C2459      C2460   1.401   1_455  A
C2459      H2464   1.084       .  S
C2460      C2461   1.409       .  A
C2460      C2465   1.476       .  S
C2461      C2462   1.405       .  A
C2461      N2466   1.438       .  S
C2462      H2467   1.084       .  S
N2463      H2483   1.043       .  S
N2463      H2484   1.046       .  S
C2465      C2468   1.401       .  A
C2465      C2472   1.411       .  A
N2466      H2481   1.046       .  S
N2466      H2482   1.046       .  S
C2468      C2469   1.407       .  A
C2468      H2473   1.084       .  S
C2469      C2470   1.411       .  A
C2469      N2474   1.437       .  S
C2470      C2471   1.399       .  A
C2471      C2472   1.401       .  A
C2471      H2475   1.084   1_655  S
N2474      H2477   1.046       .  S
N2474      H2478   1.046       .  S
N2476      H2479   1.046       .  S
N2476      H2480   1.046       .  S
C2485      C2486   1.406       .  A
C2485      C2490   1.403       .  A
C2486      C2487   1.399       .  A
C2486      N2491   1.432       .  S
C2487      C2488   1.401       .  A
C2487      H2492   1.084       .  S
C2488      C2489   1.412       .  A
C2488      C2493   1.480       .  S
C2489      C2490   1.408       .  A
C2489      N2494   1.438       .  S
C2490      H2495   1.084       .  S
N2491      H2511   1.045       .  S
N2491      H2512   1.046       .  S
C2493      C2496   1.400       .  A
C2493      C2500   1.413       .  A
N2494      H2509   1.046       .  S
N2494      H2510   1.046       .  S
C2496      C2497   1.402       .  A
C2496      H2501   1.084       .  S
C2497      C2498   1.409       .  A
C2497      N2502   1.432       .  S
C2498      C2499   1.401       .  A
C2499      C2500   1.407       .  A
C2499      H2503   1.084       .  S
C2500      N2504   1.438       .  S
N2502      H2505   1.045       .  S
N2502      H2506   1.045       .  S
N2504      H2507   1.046       .  S
N2504      H2508   1.046       .  S
C2513      C2518   1.403       .  A
C2514      C2515   1.402       .  A
C2514      N2519   1.432       .  S
C2515      C2516   1.410       .  A
C2515      H2520   1.083       .  S
C2516      C2517   1.418       .  A
C2516      C2521   1.500       .  S
C2518      H2523   1.085       .  S
N2519      H2539   1.045   1_655  S
N2519      H2540   1.042       .  S
C2521      C2524   1.403       .  A
C2521      C2528   1.415       .  A
N2522      H2537   1.046       .  S
C2524      C2525   1.404       .  A
C2524      H2529   1.083       .  S
C2525      C2526   1.423       .  A
C2525      N2530   1.438       .  S
C2526      C2527   1.408       .  A
C2527      C2528   1.406       .  A
C2527      H2531   1.081       .  S
C2528      N2532   1.438   1_655  S
N2530      H2533   1.044       .  S
N2530      H2534   1.045       .  S
N2532      H2535   1.046       .  S
C2541      C3482   1.416       .  A
C2541      C2546   1.401       .  A
C2542      C3481   1.417       .  A
C2542      C2543   1.404       .  A
C2542      N2547   1.438       .  S
C2543      C2544   1.404       .  A
C2543      H2548   1.084       .  S
C2544      C2545   1.410       .  A
C2544      C2549   1.485       .  S
C2545      C3486   1.404   1_545  A
C2545      N2550   1.438   1_545  S
C2546      C3485   1.403       .  A
C2546      H2551   1.084       .  S
N2547      H3507   1.044       .  S
N2547      H2568   1.045       .  S
C2549      C2552   1.403       .  A
C2549      C2556   1.411       .  A
N2550      H2565   1.046       .  S
N2550      H2566   1.046   1_565  S
C2552      C2553   1.403       .  A
C2552      H3497   1.084   1_545  S
C2553      C2554   1.411       .  A
C2553      N2558   1.439   1_545  S
C2554      C2555   1.404       .  A
C2555      C2556   1.409       .  A
C2555      H2559   1.084       .  S
C2556      N2560   1.437       .  S
H2557      C3492   1.084       .  S
N2558      H3501   1.046       .  S
N2558      H2562   1.046   1_565  S
N2560      H2563   1.046       .  S
N2560      H2564   1.046       .  S
H2561      N3498   1.046       .  S
H2567      N3487   1.044       .  S
C2569      C2570   1.410       .  A
C2569      C2574   1.403       .  A
C2570      C2571   1.407       .  A
C2570      N2575   1.437       .  S
C2571      C2572   1.404       .  A
C2571      H2576   1.084       .  S
C2572      C2573   1.408       .  A
C2572      C2577   1.473       .  S
C2573      C2574   1.396       .  A
C2573      N2578   1.439       .  S
C2574      H2579   1.084       .  S
N2575      H2595   1.045       .  S
N2575      H2596   1.046       .  S
C2577      C2580   1.404       .  A
C2577      C2584   1.409       .  A
N2578      H2593   1.046       .  S
N2578      H2594   1.046       .  S
C2580      C2581   1.404       .  A
C2580      H2585   1.084       .  S
C2581      C2582   1.408       .  A
C2581      N2586   1.437       .  S
C2582      C2583   1.400       .  A
C2583      C2584   1.400       .  A
C2583      H2587   1.084       .  S
C2584      N2588   1.438       .  S
N2586      H2589   1.046       .  S
N2586      H2590   1.045       .  S
N2588      H2591   1.046       .  S
N2588      H2592   1.046       .  S
C2597      C2598   1.415       .  A
C2597      C3542   1.401       .  A
C2598      C2599   1.400       .  A
C2598      N2603   1.438       .  S
C2599      C3540   1.403       .  A
C2599      H2604   1.084       .  S
C2600      C3539   1.402       .  A
C2600      C2601   1.409       .  A
C2600      C2605   1.476       .  S
C2601      C2602   1.400       .  A
C2601      N2606   1.437       .  S
C2602      C3537   1.401       .  A
C2602      H2607   1.084       .  S
N2603      H2623   1.044       .  S
N2603      H2624   1.045       .  S
C2605      C2608   1.403       .  A
C2605      C2612   1.408       .  A
N2606      H2621   1.046       .  S
N2606      H2622   1.045       .  S
C2608      C2609   1.400       .  A
C2608      H2613   1.084       .  S
C2609      C2610   1.410       .  A
C2609      N2614   1.438       .  S
C2610      C2611   1.404       .  A
C2611      C2612   1.404       .  A
C2611      H2615   1.084       .  S
C2612      N2616   1.437       .  S
N2614      H2617   1.046       .  S
N2614      H2618   1.045   1_545  S
N2616      H2619   1.046       .  S
N2616      H2620   1.046       .  S
C2625      C2626   1.412       .  A
C2625      C2630   1.405       .  A
C2626      C2627   1.409       .  A
C2626      N2631   1.437       .  S
C2627      C2628   1.402       .  A
C2627      H2632   1.084       .  S
C2628      C2629   1.408       .  A
C2628      C2633   1.475       .  S
C2629      C2630   1.400       .  A
C2629      N2634   1.439       .  S
C2630      H2635   1.084       .  S
N2631      H2651   1.046       .  S
N2631      H2652   1.046       .  S
C2633      C2636   1.400       .  A
C2633      C2640   1.409       .  A
N2634      H2649   1.046       .  S
N2634      H2650   1.045       .  S
C2636      C2637   1.399       .  A
C2636      H2641   1.084       .  S
C2637      C2638   1.408       .  A
C2637      N2642   1.433       .  S
C2638      C2639   1.406       .  A
C2639      C2640   1.407       .  A
C2639      H2643   1.083       .  S
C2640      N2644   1.438       .  S
N2642      H2645   1.046       .  S
N2642      H2646   1.045       .  S
N2644      H2647   1.046       .  S
N2644      H2648   1.045       .  S
C2653      C2654   1.412       .  A
C2653      C2658   1.403       .  A
C2654      C2655   1.409       .  A
C2654      N2659   1.438       .  S
C2655      C2656   1.403       .  A
C2655      H2660   1.084       .  S
C2656      C2657   1.410       .  A
C2656      C2661   1.481       .  S
C2657      C2658   1.403       .  A
C2657      N3602   1.438       .  S
C2658      H2663   1.084       .  S
N2659      H2679   1.046       .  S
N2659      H2680   1.046       .  S
C2661      C2664   1.403       .  A
C2661      C2668   1.408   1_545  A
N2662      C3597   1.438       .  S
N2662      H2677   1.046       .  S
N2662      H2678   1.046       .  S
C2664      C2665   1.403       .  A
C2664      H2669   1.084       .  S
C2665      C3606   1.417   1_545  A
C2665      N2670   1.438       .  S
C2666      C3605   1.416       .  A
C2666      C2667   1.404       .  A
C2667      C3608   1.405       .  A
C2667      H2671   1.084       .  S
C2668      C3607   1.405       .  A
C2668      N2672   1.438       .  S
N2670      H2673   1.046       .  S
N2670      H3614   1.044       .  S
N2672      H3615   1.046       .  S
N2672      H2676   1.046       .  S
H2674      N3610   1.043       .  S
H2675      N3612   1.046       .  S
C2681      C2682   1.407       .  A
C2681      C2686   1.400       .  A
C2682      C2683   1.401       .  A
C2682      N2687   1.437       .  S
C2683      C2684   1.403       .  A
C2683      H2688   1.084       .  S
C2684      C2685   1.410       .  A
C2684      C2689   1.475       .  S
C2685      C2686   1.403       .  A
C2685      N2690   1.438       .  S
C2686      H2691   1.084       .  S
N2687      H2707   1.045       .  S
N2687      H2708   1.046       .  S
C2689      C2692   1.404       .  A
C2689      C2696   1.409       .  A
N2690      H2705   1.046       .  S
N2690      H2706   1.046       .  S
C2692      C2693   1.407       .  A
C2692      H2697   1.084       .  S
C2693      C2694   1.409       .  A
C2693      N2698   1.437       .  S
C2694      C2695   1.401       .  A
C2695      C2696   1.398       .  A
C2695      H2699   1.084       .  S
C2696      N2700   1.439       .  S
N2698      H2701   1.046       .  S
N2698      H2702   1.046       .  S
N2700      H2703   1.046       .  S
N2700      H2704   1.046       .  S
C2709      C2714   1.406       .  A
C2710      C2711   1.400       .  A
C2710      N2715   1.438       .  S
C2711      C2712   1.401       .  A
C2711      H2716   1.084       .  S
C2712      C2717   1.481       .  S
C2713      C2714   1.408       .  A
C2713      N2718   1.438       .  S
C2714      H2719   1.084       .  S
N2715      H2735   1.044       .  S
N2715      H2736   1.046   1_655  S
C2717      C2720   1.403       .  A
C2717      C2724   1.408       .  A
N2718      H2733   1.046       .  S
N2718      H2734   1.045       .  S
C2720      C2721   1.412       .  A
C2720      H2725   1.083       .  S
C2721      C2722   1.414       .  A
C2721      N2726   1.437       .  S
C2722      C2723   1.403       .  A
C2723      C2724   1.401       .  A
C2723      H2727   1.084   1_655  S
N2726      H2729   1.046       .  S
N2726      H2730   1.046       .  S
N2728      H2731   1.046       .  S
N2728      H2732   1.045       .  S
C2737      C2738   1.408       .  A
C2737      C2742   1.399       .  A
C2738      C2739   1.403       .  A
C2738      N2743   1.437       .  S
C2739      C2740   1.402       .  A
C2739      H2744   1.084       .  S
C2740      C2741   1.409       .  A
C2740      C2745   1.474       .  S
C2741      C2742   1.401       .  A
C2741      N2746   1.438       .  S
C2742      H2747   1.084       .  S
N2743      H2763   1.046       .  S
N2743      H2764   1.045       .  S
C2745      C2748   1.403       .  A
C2745      C2752   1.407       .  A
N2746      H2761   1.046       .  S
N2746      H2762   1.046       .  S
C2748      C2749   1.398       .  A
C2748      H2753   1.084       .  S
C2749      C2750   1.407       .  A
C2749      N2754   1.438       .  S
C2750      C2751   1.406       .  A
C2751      C2752   1.406       .  A
C2751      H2755   1.084       .  S
C2752      N2756   1.437       .  S
N2754      H2757   1.046       .  S
N2754      H2758   1.046       .  S
N2756      H2759   1.046       .  S
N2756      H2760   1.046       .  S
C2765      C2766   1.411       .  A
C2765      C2770   1.400       .  A
C2766      C2767   1.408       .  A
C2766      N2771   1.438       .  S
C2767      C2768   1.404       .  A
C2767      H2772   1.083       .  S
C2768      C2769   1.414       .  A
C2768      C2773   1.488       .  S
C2769      C2770   1.403       .  A
C2769      N2774   1.438       .  S
C2770      H2775   1.084       .  S
N2771      H2791   1.045       .  S
N2771      H2792   1.046       .  S
C2773      C2776   1.404       .  A
C2773      C2780   1.413       .  A
N2774      H2789   1.046       .  S
N2774      H2790   1.046       .  S
C2776      C2777   1.400       .  A
C2776      H2781   1.084       .  S
C2777      C2778   1.415       .  A
C2777      N2782   1.438       .  S
C2778      C2779   1.403       .  A
C2779      C2780   1.407       .  A
C2779      H2783   1.084       .  S
C2780      N2784   1.438       .  S
N2782      H2785   1.046       .  S
N2782      H2786   1.044       .  S
N2784      H2787   1.046       .  S
N2784      H2788   1.046       .  S
C2793      C2794   1.413       .  A
C2793      C2798   1.406       .  A
C2794      C2795   1.397       .  A
C2794      N2799   1.439       .  S
C2795      C2796   1.400       .  A
C2795      H2800   1.084       .  S
C2796      C2797   1.410       .  A
C2796      C2801   1.478       .  S
C2797      C2798   1.408       .  A
C2797      N2802   1.437       .  S
C2798      H2803   1.084       .  S
N2799      H2819   1.046       .  S
N2799      H2820   1.046       .  S
C2801      C2808   1.412       .  A
N2802      H2817   1.045       .  S
N2802      H2818   1.045       .  S
C2804      C2805   1.399       .  A
C2804      H2809   1.084       .  S
C2805      C2806   1.415       .  A
C2805      N2810   1.439       .  S
C2807      C2808   1.403       .  A
C2807      H2811   1.084       .  S
C2808      N2812   1.438       .  S
N2810      H2813   1.046       .  S
N2810      H2814   1.043       .  S
N2812      H2815   1.046       .  S
N2812      H2816   1.046       .  S
C2821      C2822   1.405       .  A
C2821      C2826   1.401       .  A
C2821      C3733   1.481       .  S
C2822      C2823   1.402       .  A
C2822      H2827   1.084       .  S
C2823      C2824   1.400       .  A
C2823      C2857   1.472       .  S
C2824      C2825   1.403       .  A
C2824      H2828   1.084       .  S
C2825      C2826   1.399       .  A
C2825      C2976   1.468       .  S
C2826      H2829   1.084       .  S
C2830      C2831   1.401       .  A
C2830      C2835   1.404       .  A
C2830      C3705   1.478       .  S
C2831      C2832   1.402       .  A
C2831      H2836   1.084       .  S
C2832      C2833   1.405       .  A
C2832      C2907   1.477       .  S
C2833      C2834   1.405       .  A
C2833      H2837   1.083       .  S
C2834      C2835   1.405       .  A
C2834      C2954   1.480       .  S
C2835      H2838   1.083       .  S
C2839      C2840   1.401       .  A
C2839      C2844   1.401       .  A
C2839      C3690   1.478       .  S
C2840      C2841   1.405       .  A
C2840      H2845   1.083       .  S
C2841      C2842   1.405       .  A
C2841      C2877   1.477       .  S
C2842      C2843   1.406       .  A
C2842      H2846   1.084       .  S
C2843      C2844   1.402       .  A
C2843      C2946   1.475       .  S
C2844      H2847   1.083       .  S
C2848      C2849   1.402       .  A
C2848      C2853   1.404       .  A
C2848      C3662   1.481       .  S
C2849      C2850   1.403       .  A
C2849      H2854   1.084       .  S
C2850      C2851   1.404       .  A
C2850      C2961   1.473       .  S
C2851      C2852   1.403       .  A
C2851      H2855   1.084       .  S
C2852      C2853   1.405       .  A
C2853      H2856   1.084       .  S
N2858      N2875   1.324       .  A
N2858      N2880   1.320       .  A
N2858     Co2895   2.087       .  S
C2859      H2904   1.082       .  S
H2860      C2901   1.081       .  S
C2861      H2890   1.082       .  S
C2861      N2885   1.340       .  A
Co2862     N2880   2.083       .  S
Co2862     N2870   2.074       .  S
Co2862     N2902   2.077       .  S
Co2862     N2878   2.087       .  S
Co2862    Cl2906   2.463       .  S
N2863      N2870   1.319       .  A
N2863     Co2864   2.077       .  S
Co2864     N2867   2.090       .  S
Co2864     N2884   2.081       .  S
Co2864     N2871   2.084       .  S
Co2864    Cl2906   2.434       .  S
C2865      N2903   1.349       .  A
N2866      N2873   1.320       .  A
N2866      N2896   1.325       .  A
N2866     Co2899   2.083       .  S
N2867      N2885   1.319       .  A
N2868      C2897   1.351   1_565  A
N2868      N2878   1.325       .  A
H2869      C2894   1.082       .  S
N2870      N2891   1.325       .  A
N2871      N2889   1.319       .  A
N2871      N2876   1.324   1_565  A
C2872      C2900   1.462   1_545  S
C2872      N2876   1.350       .  A
N2873      C2888   1.339       .  A
N2873     Co2895   2.082       .  S
C2874      C2877   1.460       .  S
C2874      H2908   1.081       .  S
C2874      N2902   1.339       .  A
C2877      N2898   1.351       .  A
N2878      N2884   1.320       .  A
N2879      C2905   1.336       .  A
N2879      N2881   1.321       .  A
N2879     Co2895   2.079       .  S
N2880      C2894   1.341       .  A
N2881      N2909   1.324       .  A
N2881     Co2899   2.080       .  S
H2882      C2905   1.081       .  S
H2883      C2900   1.081       .  S
N2885     Co2899   2.081       .  S
N2886      N2898   1.326       .  A
N2886      N2902   1.319       .  A
N2886     Co2895   2.090       .  S
C2887      C2901   1.462       .  S
C2887      C2923   1.476       .  S
N2889      C2900   1.342       .  A
N2889     Co2899   2.084       .  S
C2893      C2905   1.457       .  S
C2893      C2912   1.468       .  S
C2893      N2909   1.349       .  A
Co2895    Cl2906   2.436       .  S
Co2899    Cl2906   2.465       .  S
C2910      C2911   1.404       .  A
C2910      C2915   1.407       .  A
C2910      C3634   1.481       .  S
C2911      C2912   1.401       .  A
C2911      H2916   1.084       .  S
C2912      C2913   1.399       .  A
C2913      C2914   1.399       .  A
C2913      H2917   1.083       .  S
C2914      C2915   1.402       .  A
C2914      C2996   1.471       .  S
C2915      H2918   1.084       .  S
C2919      C2920   1.408       .  A
C2919      C2924   1.409       .  A
C2919      C3593   1.485       .  S
C2920      C2921   1.405       .  A
C2920      H2925   1.084       .  S
C2921      C2922   1.400       .  A
C2921      C2986   1.479       .  S
C2922      H2926   1.080       .  S
C2928      C2929   1.406       .  A
C2928      C2933   1.405       .  A
C2928      C3565   1.482       .  S
C2929      C2930   1.404       .  A
C2929      H2934   1.084       .  S
C2930      C2931   1.402       .  A
C2930      C2966   1.473       .  S
C2931      C2932   1.400       .  A
C2931      H2935   1.084       .  S
C2932      C2933   1.403       .  A
C2933      H2936   1.084       .  S
C2937      C2938   1.404       .  A
C2937      C2942   1.407       .  A
C2937      C3550   1.484       .  S
C2938      C2939   1.400       .  A
C2938      H2943   1.084       .  S
C2939      C2940   1.403       .  A
C2939      C2982   1.474       .  S
C2940      C2941   1.403       .  A
C2940      H2944   1.083       .  S
C2941      C2942   1.406       .  A
C2942      H2945   1.083       .  S
C2946      C2983   1.463       .  S
C2946      N2964   1.348       .  A
N2947      N2964   1.324       .  A
N2947      N2969   1.319       .  A
N2947     Co2984   2.078       .  S
C2948      C2986   1.461       .  S
C2948      H2993   1.081       .  S
C2948      N2973   1.336       .  A
H2949      C2990   1.081       .  S
C2950      C2954   1.462       .  S
C2950      H2979   1.081       .  S
C2950      N2974   1.342       .  A
Co2951     N2969   2.082       .  S
Co2951     N2959   2.088       .  S
Co2951     N2991   2.087       .  S
Co2951     N2967   2.084       .  S
Co2951    Cl2995   2.469       .  S
N2952      C2990   1.335       .  A
N2952      N2959   1.320       .  A
N2952     Co2953   2.069       .  S
Co2953     N2956   2.087       .  S
Co2953     N2973   2.082       .  S
Co2953     N2960   2.083       .  S
Co2953    Cl2995   2.431       .  S
C2954      N2992   1.351       .  A
N2955      N2962   1.320       .  A
N2955      N2985   1.325       .  A
N2955     Co2988   2.080       .  S
N2956      N2974   1.318       .  A
N2956      N2992   1.325       .  A
N2957      C2986   1.351       .  A
N2957      N2967   1.327       .  A
H2958      C2983   1.081       .  S
N2959      N2980   1.324       .  A
N2960      N2978   1.320       .  A
N2960      N2965   1.324       .  A
C2961      C2989   1.461       .  S
C2961      N2965   1.349       .  A
N2962      C2977   1.337       .  A
N2962     Co2984   2.080       .  S
C2963      C2966   1.462       .  S
C2963      H2997   1.082       .  S
C2963      N2991   1.343       .  A
C2966      N2987   1.349       .  A
N2967      N2973   1.320       .  A
N2968      C2994   1.337       .  A
N2968      N2970   1.319       .  A
N2968     Co2984   2.072       .  S
N2969      C2983   1.341       .  A
N2970      N2998   1.325       .  A
N2970     Co2988   2.085       .  S
H2971      C2994   1.081       .  S
H2972      C2989   1.082       .  S
N2974     Co2988   2.082       .  S
N2975      N2987   1.322       .  A
N2975      N2991   1.320       .  A
N2975     Co2984   2.085       .  S
C2976      C2990   1.454       .  S
C2976      N2980   1.352       .  A
C2977      C2996   1.459       .  S
C2977      H2981   1.081       .  S
N2978      C2989   1.341       .  A
N2978     Co2988   2.085       .  S
C2982      C2994   1.456       .  S
C2982      N2998   1.352       .  A
Co2984    Cl2995   2.429       .  S
N2985      C2996   1.350       .  A
Co2988    Cl2995   2.468       .  S
N2999      C3004   1.354       .  A
N2999      C3003   1.354       .  A
N2999      H3031   1.031       .  S
N3000      C3007   1.351       .  A
N3000      C3008   1.352       .  A
N3001      C3006   1.353       .  A
N3001      C3005   1.354       .  A
N3001      H3032   1.033       .  S
N3002      C3009   1.350       .  A
N3002      C3010   1.350       .  A
C3003      C3011   1.389       .  A
C3003      C3019   1.422       .  A
C3004      C3020   1.419       .  A
C3004      C3012   1.387       .  A
C3005      C3013   1.388       .  A
C3005      C3022   1.418       .  A
C3006      C3021   1.418       .  A
C3006      C3014   1.388       .  A
C3007      C3019   1.417       .  A
C3008      C3022   1.414       .  A
C3009      C3017   1.387       .  A
C3009      C3020   1.412       .  A
C3010      C3018   1.386       .  A
C3010      C3021   1.411       .  A
C3011      C3012   1.375       .  A
C3011      H3023   1.082       .  S
C3012      H3024   1.083       .  S
C3013      C3014   1.371       .  A
C3013      H3025   1.082       .  S
C3014      H3026   1.082       .  S
C3015      C3016   1.375       .  A
C3015      H3027   1.082       .  S
C3016      H3028   1.082       .  S
C3017      C3018   1.373       .  A
C3017      H3029   1.082       .  S
C3018      H3030   1.082       .  S
C3019      C3481   1.488   1_565  S
C3020      C3522   1.485       .  S
C3021      C3677   1.482       .  S
C3022      C3606   1.488       .  S
N3033      C3038   1.353       .  A
N3033      C3037   1.354       .  A
N3033      H3065   1.040       .  S
N3034      C3041   1.345       .  A
N3034      C3042   1.347       .  A
N3035      C3040   1.348       .  A
N3035      C3039   1.349       .  A
N3035      H3066   1.041   1_556  S
N3036      C3043   1.345       .  A
N3036      C3044   1.349       .  A
C3037      C3045   1.386       .  A
C3037      C3053   1.413       .  A
C3038      C3054   1.418       .  A
C3038      C3046   1.389       .  A
C3039      C3047   1.387       .  A
C3039      C3056   1.406       .  A
C3040      C3055   1.408       .  A
C3040      C3048   1.385       .  A
C3041      C3053   1.405       .  A
C3041      C3049   1.386       .  A
C3042      C3056   1.405   1_554  A
C3042      C3050   1.385       .  A
C3043      C3054   1.409       .  A
C3044      C3055   1.409   1_554  A
C3045      C3046   1.375       .  A
C3045      H3057   1.083       .  S
C3046      H3058   1.082       .  S
C3047      C3048   1.373       .  A
C3047      H3059   1.081       .  S
C3048      H3060   1.083       .  S
C3049      C3050   1.379       .  A
C3049      H3061   1.082       .  S
C3050      H3062   1.082       .  S
C3051      C3052   1.381       .  A
C3051      H3063   1.082       .  S
C3052      H3064   1.082   1_554  S
C3053      C3621   1.479       .  S
C3054      C3649   1.486       .  S
C3055      C3453   1.492       .  S
C3056      C3425   1.479       .  S
N3067      C3072   1.353       .  A
N3067      C3071   1.355       .  A
N3067      H3099   1.033       .  S
N3068      C3075   1.351       .  A
N3068      C3076   1.351       .  A
N3069      C3074   1.355       .  A
N3069      C3073   1.353       .  A
N3069      H3100   1.033       .  S
N3070      C3077   1.349       .  A
N3070      C3078   1.350       .  A
C3071      C3079   1.388       .  A
C3071      C3087   1.421       .  A
C3072      C3088   1.420       .  A
C3072      C3080   1.388       .  A
C3073      C3081   1.389       .  A
C3073      C3090   1.419       .  A
C3074      C3089   1.419       .  A
C3074      C3082   1.388       .  A
C3075      C3087   1.415       .  A
C3075      C3083   1.387       .  A
C3076      C3090   1.412       .  A
C3076      C3084   1.385       .  A
C3077      C3088   1.412       .  A
C3078      C3089   1.410       .  A
C3079      C3080   1.374       .  A
C3079      H3091   1.082       .  S
C3080      H3092   1.082       .  S
C3081      C3082   1.369       .  A
C3081      H3093   1.082       .  S
C3082      H3094   1.082       .  S
C3083      C3084   1.375       .  A
C3083      H3095   1.082       .  S
C3084      H3096   1.082       .  S
C3085      C3086   1.373       .  A
C3085      H3097   1.082       .  S
C3086      H3098   1.082       .  S
C3087      C3578   1.491       .  S
C3088      C3746   1.483       .  S
C3089      C3397   1.486       .  S
C3090      C3382   1.485       .  S
N3101      C3106   1.354       .  A
N3101      C3105   1.351       .  A
N3101      H3133   1.028   1_556  S
N3102      C3109   1.350       .  A
N3102      C3110   1.350       .  A
N3103      C3108   1.353       .  A
N3103      C3107   1.354       .  A
N3103      H3134   1.032       .  S
N3104      C3111   1.349   1_564  A
N3104      C3112   1.348       .  A
C3105      C3113   1.388       .  A
C3105      C3121   1.419       .  A
C3106      C3122   1.421       .  A
C3106      C3114   1.389       .  A
C3107      C3115   1.388       .  A
C3107      C3124   1.419       .  A
C3108      C3123   1.420       .  A
C3108      C3116   1.389       .  A
C3109      C3121   1.415   1_554  A
C3109      C3117   1.387       .  A
C3110      C3124   1.412       .  A
C3110      C3118   1.385       .  A
C3111      C3122   1.414   1_545  A
C3112      C3123   1.410       .  A
C3113      C3114   1.373       .  A
C3113      H3125   1.083       .  S
C3114      H3126   1.082       .  S
C3115      C3116   1.370       .  A
C3115      H3127   1.082       .  S
C3116      H3128   1.082       .  S
C3117      C3118   1.375       .  A
C3117      H3129   1.082   1_554  S
C3118      H3130   1.082       .  S
C3119      C3120   1.374       .  A
C3119      H3131   1.082   1_554  S
C3120      H3132   1.082       .  S
C3121      C3354   1.483       .  S
C3122      C3326   1.485   1_565  S
C3123      C3537   1.479   1_565  S
C3124      C3718   1.486       .  S
C3135      C3136   1.406       .  A
C3135      C3140   1.402       .  A
C3135      C3341   1.479       .  S
C3136      C3137   1.404       .  A
C3136      H3141   1.084       .  S
C3137      C3138   1.404       .  A
C3138      C3139   1.403       .  A
C3138      H3142   1.084       .  S
C3139      C3140   1.401       .  A
C3139      C3189   1.472       .  S
C3140      H3143   1.084       .  S
C3144      C3145   1.413       .  A
C3144      C3149   1.410       .  A
C3144      C3466   1.499       .  S
C3145      C3146   1.404       .  A
C3145      H3150   1.082       .  S
C3146      C3147   1.396       .  A
C3146      C3300   1.474       .  S
C3147      C3148   1.393       .  A
C3147      H3151   1.080       .  S
C3148      C3149   1.400       .  A
C3148      C3219   1.469       .  S
C3149      H3152   1.081       .  S
C3153      C3154   1.404       .  A
C3153      C3158   1.408       .  A
C3153      C3313   1.485       .  S
C3154      C3155   1.405       .  A
C3154      H3159   1.084       .  S
C3155      C3156   1.401       .  A
C3155      C3229   1.473       .  S
C3156      C3157   1.401       .  A
C3156      H3160   1.084       .  S
C3157      C3158   1.404       .  A
C3157      C3280   1.474       .  S
C3158      H3161   1.084       .  S
C3162      C3163   1.401       .  A
C3162      C3167   1.403       .  A
C3162      C3438   1.483       .  S
C3163      C3164   1.406       .  A
C3163      H3168   1.083       .  S
C3164      C3165   1.411       .  A
C3164      C3260   1.482       .  S
C3165      C3166   1.407       .  A
C3165      H3169   1.084       .  S
C3166      C3167   1.406       .  A
C3166      C3209   1.486       .  S
C3167      H3170   1.083       .  S
C3171      C3172   1.400       .  A
C3171      C3176   1.408       .  A
C3171      C3369   1.479       .  S
C3172      C3173   1.400       .  A
C3172      H3177   1.084       .  S
C3173      C3174   1.402       .  A
C3173      C3204   1.474       .  S
C3174      C3175   1.405       .  A
C3174      H3178   1.083       .  S
C3175      C3176   1.410       .  A
C3175      C3296   1.484       .  S
C3176      H3179   1.083       .  S
C3180      C3181   1.404       .  A
C3180      C3185   1.404       .  A
C3180      C3494   1.480       .  S
C3181      C3182   1.403       .  A
C3181      H3186   1.084       .  S
C3182      C3183   1.406       .  A
C3182      C3275   1.476       .  S
C3183      C3184   1.405       .  A
C3183      H3187   1.084       .  S
C3184      C3185   1.405       .  A
C3184      C3197   1.477       .  S
C3185      H3188   1.084       .  S
C3189      C3226   1.461       .  S
C3189      N3207   1.350       .  A
N3190      N3207   1.324       .  A
N3190      N3212   1.320       .  A
N3190     Co3227   2.087       .  S
C3191      C3229   1.460       .  S
C3191      H3236   1.082       .  S
C3191      N3216   1.340       .  A
H3192      C3233   1.081       .  S
C3193      C3197   1.461       .  S
C3193      H3222   1.082       .  S
C3193      N3217   1.342       .  A
Co3194     N3212   2.083       .  S
Co3194     N3202   2.074       .  S
Co3194     N3234   2.078       .  S
Co3194     N3210   2.081       .  S
Co3194    Cl3238   2.463       .  S
N3195      C3233   1.335       .  A
N3195      N3202   1.319       .  A
N3195     Co3196   2.074       .  S
Co3196     N3199   2.096       .  S
Co3196     N3216   2.087       .  S
Co3196     N3203   2.079       .  S
Co3196    Cl3238   2.438       .  S
C3197      N3235   1.352       .  A
N3198      N3205   1.320       .  A
N3198      N3228   1.325       .  A
N3198     Co3231   2.083       .  S
N3199      N3217   1.321       .  A
N3199      N3235   1.326       .  A
N3200      C3229   1.349       .  A
N3200      N3210   1.324       .  A
H3201      C3226   1.082       .  S
N3202      N3223   1.324       .  A
N3203      N3221   1.319       .  A
N3203      N3208   1.323       .  A
C3204      C3232   1.461       .  S
C3204      N3208   1.349       .  A
N3205      C3220   1.339       .  A
N3205     Co3227   2.087       .  S
C3206      C3209   1.460       .  S
C3206      H3240   1.081       .  S
C3206      N3234   1.339       .  A
C3209      N3230   1.355       .  A
N3210      N3216   1.321       .  A
N3211      C3237   1.336       .  A
N3211      N3213   1.321       .  A
N3211     Co3227   2.081       .  S
N3212      C3226   1.341       .  A
N3213      N3241   1.325       .  A
N3213     Co3231   2.082       .  S
H3214      C3237   1.081       .  S
H3215      C3232   1.081       .  S
N3217     Co3231   2.087       .  S
N3218      N3230   1.329       .  A
N3218      N3234   1.319       .  A
N3218     Co3227   2.103       .  S
C3219      C3233   1.458       .  S
C3219      N3223   1.348       .  A
C3220      C3239   1.461       .  S
C3220      H3224   1.081       .  S
N3221      C3232   1.340       .  A
N3221     Co3231   2.080       .  S
C3225      C3237   1.459       .  S
C3225      C3253   1.472       .  S
C3225      N3241   1.349       .  A
Co3227    Cl3238   2.440       .  S
N3228      C3239   1.351       .  A
Co3231    Cl3238   2.465       .  S
C3239      C3244   1.478       .  S
C3242      C3243   1.404       .  A
C3242      C3247   1.403       .  A
C3242      C3410   1.478       .  S
C3243      C3244   1.406       .  A
C3243      H3248   1.084       .  S
C3244      C3245   1.404       .  A
C3245      C3246   1.402       .  A
C3245      H3249   1.083       .  S
C3246      C3247   1.401       .  A
C3246      C3268   1.476       .  S
C3247      H3250   1.083       .  S
C3251      C3252   1.407       .  A
C3251      C3256   1.405       .  A
C3251      C3509   1.483       .  S
C3252      C3253   1.406       .  A
C3252      H3257   1.084       .  S
C3253      C3254   1.400       .  A
C3254      C3255   1.398       .  A
C3254      H3258   1.083       .  S
C3255      C3256   1.399       .  A
C3255      C3310   1.471       .  S
C3256      H3259   1.084       .  S
C3260      C3297   1.465       .  S
C3260      N3278   1.350       .  A
N3261      N3278   1.325       .  A
N3261      N3283   1.319       .  A
N3261     Co3298   2.089       .  S
C3262      C3300   1.460       .  S
C3262      H3307   1.081       .  S
H3263      C3304   1.082       .  S
C3264      H3293   1.081       .  S
C3264      N3288   1.339       .  A
Co3265     N3283   2.085       .  S
Co3265     N3273   2.093       .  S
Co3265     N3305   2.091       .  S
Co3265     N3281   2.086       .  S
Co3265    Cl3309   2.467       .  S
N3266      N3273   1.320       .  A
Co3267     N3287   2.075       .  S
Co3267     N3274   2.091   1_655  S
C3268      N3306   1.350       .  A
N3269      N3276   1.319       .  A
N3269      N3299   1.324       .  A
N3269     Co3302   2.081       .  S
N3270      N3288   1.318       .  A
H3272      C3297   1.081       .  S
N3273      N3294   1.326       .  A
C3275      N3279   1.348       .  A
N3276      C3291   1.337       .  A
N3276     Co3298   2.075       .  S
C3277      C3280   1.462       .  S
C3277      H3311   1.082       .  S
C3280      N3301   1.349       .  A
N3282      N3284   1.319       .  A
N3282     Co3298   2.088       .  S
N3283      C3297   1.341       .  A
N3284     Co3302   2.077       .  S
H3285      C3308   1.081       .  S
H3286      C3303   1.082       .  S
N3288     Co3302   2.073       .  S
N3289      N3305   1.320       .  A
N3289     Co3298   2.078       .  S
C3290      N3294   1.353       .  A
C3291      C3310   1.459       .  S
C3291      H3295   1.081       .  S
N3292     Co3302   2.085       .  S
C3296      C3308   1.463       .  S
C3296      N3312   1.352       .  A
Co3298    Cl3309   2.433       .  S
N3299      C3310   1.350       .  A
Co3302    Cl3309   2.464       .  S
C3313      C3314   1.408       .  A
C3313      C3318   1.406       .  A
C3314      C3315   1.397       .  A
C3314      N3319   1.433       .  S
C3315      C3316   1.403       .  A
C3315      H3320   1.084       .  S
C3316      C3317   1.416       .  A
C3316      C3321   1.493       .  S
C3317      C3318   1.414       .  A
C3317      N3322   1.437       .  S
C3318      H3323   1.084       .  S
N3319      H3339   1.046       .  S
N3319      H3340   1.046       .  S
C3321      C3324   1.407       .  A
N3322      H3337   1.046       .  S
C3324      C3325   1.406       .  A
C3324      H3329   1.083       .  S
C3325      N3330   1.438       .  S
C3326      C3327   1.401       .  A
C3327      C3328   1.400       .  A
C3327      H3331   1.084   1_545  S
C3328      N3332   1.437       .  S
N3330      H3333   1.046       .  S
N3330      H3334   1.044       .  S
N3332      H3335   1.046   1_545  S
N3332      H3336   1.046       .  S
C3341      C3342   1.409       .  A
C3341      C3346   1.403       .  A
C3342      C3343   1.405       .  A
C3342      N3347   1.431       .  S
C3343      C3344   1.401       .  A
C3343      H3348   1.084       .  S
C3344      C3345   1.409       .  A
C3344      C3349   1.475       .  S
C3345      C3346   1.402       .  A
C3345      N3350   1.439       .  S
C3346      H3351   1.084       .  S
N3347      H3367   1.046       .  S
N3347      H3368   1.045       .  S
C3349      C3352   1.402       .  A
C3349      C3356   1.415       .  A
N3350      H3365   1.046       .  S
N3350      H3366   1.046       .  S
C3352      C3353   1.399       .  A
C3352      H3357   1.084       .  S
C3353      C3354   1.414       .  A
C3353      N3358   1.438       .  S
C3354      C3355   1.403       .  A
C3355      C3356   1.399       .  A
C3355      H3359   1.084       .  S
C3356      N3360   1.439       .  S
N3358      H3361   1.045       .  S
N3358      H3362   1.043       .  S
N3360      H3363   1.046       .  S
N3360      H3364   1.043       .  S
C3369      C3370   1.413       .  A
C3369      C3374   1.401       .  A
C3370      C3371   1.407       .  A
C3370      N3375   1.437       .  S
C3371      C3372   1.400       .  A
C3371      H3376   1.084       .  S
C3372      C3373   1.411       .  A
C3372      C3377   1.478       .  S
C3373      C3374   1.405       .  A
C3373      N3378   1.438       .  S
C3374      H3379   1.084       .  S
C3377      C3380   1.401       .  A
C3377      C3384   1.409       .  A
N3378      H3393   1.046       .  S
N3378      H3394   1.046       .  S
C3380      C3381   1.400       .  A
C3380      H3385   1.084       .  S
C3381      C3382   1.416       .  A
C3381      N3386   1.438       .  S
C3382      C3383   1.403       .  A
C3383      C3384   1.405       .  A
C3383      H3387   1.084       .  S
C3384      N3388   1.438       .  S
N3386      H3389   1.046       .  S
N3386      H3390   1.043       .  S
N3388      H3391   1.046       .  S
N3388      H3392   1.046       .  S
C3397      C3398   1.414       .  A
C3398      N3403   1.438       .  S
C3399      C3400   1.404   1_455  A
C3399      H3404   1.084       .  S
C3400      C3401   1.410       .  A
C3400      C3405   1.482       .  S
C3401      C3402   1.405       .  A
C3401      N3406   1.438       .  S
C3402      H3407   1.084       .  S
N3403      H3423   1.043       .  S
N3403      H3424   1.046       .  S
C3405      C3408   1.404       .  A
C3405      C3412   1.412       .  A
N3406      H3421   1.046       .  S
N3406      H3422   1.046       .  S
C3408      C3409   1.408       .  A
C3408      H3413   1.084       .  S
C3409      C3410   1.412       .  A
C3409      N3414   1.437       .  S
C3410      C3411   1.400       .  A
C3411      C3412   1.401       .  A
C3411      H3415   1.084   1_655  S
N3414      H3417   1.046       .  S
N3414      H3418   1.045       .  S
N3416      H3419   1.046       .  S
N3416      H3420   1.046       .  S
C3425      C3426   1.406       .  A
C3425      C3430   1.400       .  A
C3426      C3427   1.400       .  A
C3426      N3431   1.433       .  S
C3427      C3428   1.404       .  A
C3427      H3432   1.084       .  S
C3428      C3429   1.415       .  A
C3428      C3433   1.486       .  S
C3429      C3430   1.406       .  A
C3429      N3434   1.438       .  S
C3430      H3435   1.084       .  S
N3431      H3451   1.045       .  S
N3431      H3452   1.046       .  S
C3433      C3436   1.402       .  A
C3433      C3440   1.415       .  A
N3434      H3449   1.046       .  S
N3434      H3450   1.046       .  S
C3436      C3437   1.401       .  A
C3436      H3441   1.084       .  S
C3437      C3438   1.409       .  A
C3437      N3442   1.432       .  S
C3438      C3439   1.404       .  A
C3439      C3440   1.408       .  A
C3439      H3443   1.084       .  S
C3440      N3444   1.438       .  S
N3442      H3445   1.046       .  S
N3442      H3446   1.046       .  S
N3444      H3447   1.046       .  S
N3444      H3448   1.046       .  S
C3453      C3458   1.404       .  A
C3454      C3455   1.404       .  A
C3454      N3459   1.437       .  S
C3455      C3456   1.410       .  A
C3455      H3460   1.083       .  S
C3456      C3457   1.415       .  A
C3456      C3461   1.498       .  S
C3458      H3463   1.085       .  S
N3459      H3479   1.042   1_655  S
N3459      H3480   1.045       .  S
C3461      C3464   1.405       .  A
C3461      C3468   1.416       .  A
N3462      H3477   1.046       .  S
C3464      C3465   1.403       .  A
C3464      H3469   1.083       .  S
C3465      C3466   1.417       .  A
C3465      N3470   1.438       .  S
C3466      C3467   1.408       .  A
C3467      C3468   1.406       .  A
C3467      H3471   1.082       .  S
C3468      N3472   1.438   1_655  S
N3470      H3473   1.045       .  S
N3470      H3474   1.046       .  S
N3472      H3475   1.046       .  S
C3481      C3486   1.402   1_545  A
C3482      C3483   1.403       .  A
C3482      N3487   1.438       .  S
C3483      C3484   1.404       .  A
C3483      H3488   1.084       .  S
C3484      C3485   1.411       .  A
C3484      C3489   1.485       .  S
C3485      N3490   1.438       .  S
C3486      H3491   1.084       .  S
N3487      H3508   1.046       .  S
C3489      C3492   1.402       .  A
C3489      C3496   1.412       .  A
N3490      H3505   1.046       .  S
N3490      H3506   1.046       .  S
C3492      C3493   1.401       .  A
C3493      C3494   1.410       .  A
C3493      N3498   1.438       .  S
C3494      C3495   1.404       .  A
C3495      C3496   1.411       .  A
C3495      H3499   1.083       .  S
C3496      N3500   1.437       .  S
N3498      H3502   1.046       .  S
N3500      H3503   1.046       .  S
N3500      H3504   1.046       .  S
C3509      C3510   1.412       .  A
C3509      C3514   1.404       .  A
C3510      C3511   1.411       .  A
C3510      N3515   1.437       .  S
C3511      C3512   1.406       .  A
C3511      H3516   1.084       .  S
C3512      C3513   1.408       .  A
C3512      C3517   1.480       .  S
C3513      C3514   1.397       .  A
C3513      N3518   1.439       .  S
C3514      H3519   1.084       .  S
N3515      H3535   1.045       .  S
N3515      H3536   1.046       .  S
C3517      C3520   1.405       .  A
C3517      C3524   1.410       .  A
N3518      H3533   1.046       .  S
N3518      H3534   1.046       .  S
C3520      C3521   1.406       .  A
C3520      H3525   1.084       .  S
C3521      C3522   1.409       .  A
C3521      N3526   1.437       .  S
C3522      C3523   1.401       .  A
C3523      C3524   1.403       .  A
C3523      H3527   1.084       .  S
C3524      N3528   1.438       .  S
N3526      H3529   1.046       .  S
N3526      H3530   1.045       .  S
N3528      H3531   1.046       .  S
N3528      H3532   1.046       .  S
C3537      C3538   1.414   1_545  A
C3538      C3539   1.398   1_565  A
C3538      N3543   1.438       .  S
C3539      H3544   1.084   1_545  S
C3540      C3541   1.412       .  A
C3540      C3545   1.482       .  S
C3541      C3542   1.403       .  A
C3541      N3546   1.437       .  S
C3542      H3547   1.084       .  S
N3543      H3563   1.044       .  S
N3543      H3564   1.046       .  S
C3545      C3548   1.402       .  A
C3545      C3552   1.410       .  A
N3546      H3561   1.046       .  S
N3546      H3562   1.045       .  S
C3548      C3549   1.400       .  A
C3548      H3553   1.084       .  S
C3549      C3550   1.412       .  A
C3549      N3554   1.438       .  S
C3550      C3551   1.406       .  A
C3551      C3552   1.408       .  A
C3551      H3555   1.084       .  S
C3552      N3556   1.437       .  S
N3554      H3557   1.046       .  S
N3554      H3558   1.045       .  S
N3556      H3559   1.046       .  S
N3556      H3560   1.046       .  S
C3565      C3566   1.411       .  A
C3565      C3570   1.403       .  A
C3566      C3567   1.410       .  A
C3566      N3571   1.437       .  S
C3567      C3568   1.403       .  A
C3567      H3572   1.083       .  S
C3568      C3569   1.408       .  A
C3568      C3573   1.478       .  S
C3569      C3570   1.402       .  A
C3569      N3574   1.439       .  S
C3570      H3575   1.084       .  S
N3571      H3591   1.046       .  S
N3571      H3592   1.046       .  S
C3573      C3576   1.401       .  A
C3573      C3580   1.410       .  A
N3574      H3589   1.046       .  S
N3574      H3590   1.045       .  S
C3576      C3577   1.401       .  A
C3576      H3581   1.084       .  S
C3577      C3578   1.407       .  A
C3577      N3582   1.432       .  S
C3578      C3579   1.405       .  A
C3579      C3580   1.409       .  A
C3579      H3583   1.083       .  S
C3580      N3584   1.438       .  S
N3582      H3585   1.046       .  S
N3582      H3586   1.045       .  S
N3584      H3587   1.046       .  S
N3584      H3588   1.045       .  S
C3593      C3594   1.414       .  A
C3593      C3598   1.403       .  A
C3594      C3595   1.409       .  A
C3594      N3599   1.437       .  S
C3595      C3596   1.401       .  A
C3595      H3600   1.084       .  S
C3596      C3597   1.410       .  A
C3596      C3601   1.481       .  S
C3597      C3598   1.405       .  A
C3598      H3603   1.084       .  S
N3599      H3619   1.046       .  S
N3599      H3620   1.046       .  S
C3601      C3604   1.402       .  A
C3601      C3608   1.409       .  A
N3602      H3617   1.046       .  S
N3602      H3618   1.046   1_545  S
C3604      C3605   1.401       .  A
C3604      H3609   1.084       .  S
C3605      N3610   1.438       .  S
C3606      C3607   1.403       .  A
C3607      H3611   1.084       .  S
C3608      N3612   1.437       .  S
N3610      H3613   1.045       .  S
N3612      H3616   1.045       .  S
C3621      C3622   1.407       .  A
C3621      C3626   1.401       .  A
C3622      C3623   1.402       .  A
C3622      N3627   1.437       .  S
C3623      C3624   1.403       .  A
C3623      H3628   1.084       .  S
C3624      C3625   1.411       .  A
C3624      C3629   1.479       .  S
C3625      C3626   1.404       .  A
C3625      N3630   1.438       .  S
C3626      H3631   1.084       .  S
N3627      H3647   1.045       .  S
N3627      H3648   1.046       .  S
C3629      C3632   1.404       .  A
C3629      C3636   1.409       .  A
N3630      H3645   1.046       .  S
N3630      H3646   1.046       .  S
C3632      C3633   1.408       .  A
C3632      H3637   1.084       .  S
C3633      C3634   1.413       .  A
C3633      N3638   1.437       .  S
C3634      C3635   1.403       .  A
C3635      C3636   1.398       .  A
C3635      H3639   1.084       .  S
C3636      N3640   1.439       .  S
N3638      H3641   1.046       .  S
N3638      H3642   1.045       .  S
N3640      H3643   1.046       .  S
N3640      H3644   1.046       .  S
C3649      C3654   1.405       .  A
C3650      C3651   1.402       .  A
C3650      N3655   1.438       .  S
C3651      C3652   1.402       .  A
C3651      H3656   1.084       .  S
C3652      C3657   1.480       .  S
C3653      C3654   1.405       .  A
C3653      N3658   1.437       .  S
C3654      H3659   1.084       .  S
N3655      H3675   1.044       .  S
N3655      H3676   1.045       .  S
C3657      C3660   1.403       .  A
C3657      C3664   1.409       .  A
N3658      H3673   1.046       .  S
N3658      H3674   1.045       .  S
C3660      C3661   1.411       .  A
C3660      H3665   1.083       .  S
C3661      C3662   1.412       .  A
C3661      N3666   1.437       .  S
C3662      C3663   1.402       .  A
C3663      C3664   1.402       .  A
C3663      H3667   1.084       .  S
N3666      H3669   1.046       .  S
N3666      H3670   1.046       .  S
N3668      H3671   1.046       .  S
N3668      H3672   1.046       .  S
C3677      C3678   1.407       .  A
C3677      C3682   1.401       .  A
C3678      C3679   1.404       .  A
C3678      N3683   1.437       .  S
C3679      C3680   1.403       .  A
C3679      H3684   1.084       .  S
C3680      C3681   1.410       .  A
C3680      C3685   1.479       .  S
C3681      C3682   1.404       .  A
C3681      N3686   1.437       .  S
C3682      H3687   1.084       .  S
N3683      H3703   1.045       .  S
N3683      H3704   1.045       .  S
C3685      C3688   1.402       .  A
C3685      C3692   1.409       .  A
N3686      H3701   1.046       .  S
N3686      H3702   1.046       .  S
C3688      C3689   1.401       .  A
C3688      H3693   1.084       .  S
C3689      C3690   1.409       .  A
C3689      N3694   1.438       .  S
C3690      C3691   1.405       .  A
C3691      C3692   1.408       .  A
C3691      H3695   1.084       .  S
C3692      N3696   1.437       .  S
N3694      H3697   1.046       .  S
N3694      H3698   1.046       .  S
N3696      H3699   1.046       .  S
N3696      H3700   1.046       .  S
C3705      C3706   1.412       .  A
C3705      C3710   1.400       .  A
C3706      C3707   1.407       .  A
C3706      N3711   1.438       .  S
C3707      C3708   1.402       .  A
C3707      H3712   1.084       .  S
C3708      C3709   1.414       .  A
C3708      C3713   1.485       .  S
C3709      C3710   1.404       .  A
C3709      N3714   1.438       .  S
C3710      H3715   1.084       .  S
N3711      H3731   1.045       .  S
N3711      H3732   1.046       .  S
C3713      C3716   1.402       .  A
C3713      C3720   1.412       .  A
N3714      H3729   1.046       .  S
N3714      H3730   1.046       .  S
C3716      C3717   1.397       .  A
C3716      H3721   1.084       .  S
C3717      C3718   1.414       .  A
C3717      N3722   1.438       .  S
C3718      C3719   1.404       .  A
C3719      C3720   1.409       .  A
C3719      H3723   1.084       .  S
C3720      N3724   1.438       .  S
N3722      H3725   1.046       .  S
N3722      H3726   1.044       .  S
N3724      H3727   1.046       .  S
N3724      H3728   1.045       .  S
C3733      C3734   1.416       .  A
C3733      C3738   1.404       .  A
C3734      C3735   1.401       .  A
C3734      N3739   1.439       .  S
C3735      C3736   1.400       .  A
C3735      H3740   1.084       .  S
C3736      C3737   1.407       .  A
C3736      C3741   1.473       .  S
C3737      C3738   1.404       .  A
C3737      N3742   1.437       .  S
C3738      H3743   1.084       .  S
N3739      H3759   1.046       .  S
N3739      H3760   1.046       .  S
C3741      C3748   1.408       .  A
N3742      H3757   1.046       .  S
N3742      H3758   1.046       .  S
C3744      C3745   1.397       .  A
C3744      H3749   1.084       .  S
C3745      C3746   1.414       .  A
C3745      N3750   1.438       .  S
C3747      C3748   1.404       .  A
C3747      H3751   1.084       .  S
C3748      N3752   1.437       .  S
N3750      H3753   1.046       .  S
N3750      H3754   1.043       .  S
N3752      H3755   1.046       .  S
N3752      H3756   1.046       .  S
