geometry optimzed in LAMMPS
_audit_creation_date              2020-12-01 
_audit_creation_method            'lammps2cif' 
_symmetry_space_group_name_H-M    'P1' 
_symmetry_Int_Tables_number       1 
_symmetry_cell_setting            triclinic 
loop_ 
_symmetry_equiv_pos_as_xyz 
  x,y,z 
_cell_length_a                    44.10134082 
_cell_length_b                    44.10719673501586 
_cell_length_c                    28.17152166605855 
_cell_angle_alpha                 90.41129025444988 
_cell_angle_beta                  89.99253116533387 
_cell_angle_gamma                 119.88388052132673 
loop_ 
_atom_site_label 
_atom_site_type_symbol 
_atom_site_fract_x 
_atom_site_fract_y 
_atom_site_fract_z 
_atom_site_charge 
O1          O  0.43423609  0.41016052  0.31399504    -0.73700
O2          O  0.34364744  0.31958204  0.31531316    -0.74700
O3          O  0.37531430  0.37773637  0.25400648    -0.63300
O4          O  0.40294437  0.35227644  0.37649101    -0.71700
O5          O  0.37715598  0.37664339  0.41610431    -0.71300
O6          O  0.35227324  0.40497417  0.29307925    -0.62500
O7          O  0.31843091  0.34544367  0.35308459    -0.75000
O8          O  0.40999302  0.43532632  0.35590233    -0.73800
Cu9        Cu  0.38978291  0.36393347  0.31367172     1.04600
Cu10       Cu  0.36346307  0.39132649  0.35603382     1.04300
C11         C  0.43629340  0.43707201  0.33438418     0.92500
C12         C  0.31648965  0.31835917  0.33332136     0.91600
C13         C  0.36046539  0.39631962  0.25380581     0.83800
C14         C  0.39476641  0.36078581  0.41594729     0.90100
O15         O  0.15910132  0.18518163  0.31022419    -0.73700
O16         O  0.06828974  0.09415113  0.30835677    -0.74700
O17         O  0.09767950  0.15420198  0.36799119    -0.63300
O18         O  0.12876346  0.12466935  0.25082140    -0.71700
O19         O  0.15121002  0.09965964  0.29552996    -0.71300
O20         O  0.12241187  0.13135512  0.41281139    -0.62500
O21         O  0.09162459  0.07083517  0.35528734    -0.75000
O22         O  0.18271845  0.16073967  0.35394088    -0.73800
Cu23       Cu  0.11275924  0.14053820  0.30780801     1.04600
Cu24       Cu  0.13796056  0.11497782  0.35592871     1.04300
C25         C  0.18557036  0.18714063  0.33171094     0.92500
C26         C  0.06565830  0.06835341  0.33201090     0.91600
C27         C  0.10453289  0.14680308  0.40897933     0.83800
C28         C  0.14391216  0.10648605  0.25448451     0.90100
O29         O  0.50429344  0.37800630  0.75031026    -0.73700
O30         O  0.44700780  0.35066538  0.63026822    -0.74700
O31         O  0.47584369  0.31886733  0.68860932    -0.63300
O32         O  0.47541127  0.40925400  0.69242363    -0.71700
O33         O  0.02014010  0.43156049  0.65407520    -0.71300
O34         O  0.01806864  0.34010004  0.65206126    -0.62500
O35         O  0.99104998  0.37301944  0.59292969    -0.75000
O36         O  0.04721483  0.39933124  0.71317162    -0.73800
Cu37       Cu  0.47391091  0.36319033  0.69184137     1.04600
Cu38       Cu  0.02076136  0.38665547  0.65162286     1.04300
C39         C  0.03192523  0.39245457  0.75341941     0.92500
C40         C  0.46247683  0.35897852  0.59012512     0.91600
C41         C  0.99315000  0.31364505  0.67239522     0.83800
C42         C  0.99629151  0.43445897  0.67576122     0.90100
O43         O  0.04665301  0.15132867  0.61946591    -0.73700
O44         O  0.99287475  0.12154792  0.74101449    -0.74700
O45         O  0.02153390  0.09230609  0.67937820    -0.63300
O46         O  0.01738539  0.18077461  0.68174740    -0.71700
O47         O  0.47448103  0.15794042  0.64570095    -0.71300
O48         O  0.47651594  0.06837463  0.64375903    -0.62500
O49         O  0.44807409  0.09827044  0.70573000    -0.75000
O50         O  0.50289781  0.12720974  0.58438413    -0.73800
Cu51       Cu  0.02132131  0.13752083  0.68170857     1.04600
Cu52       Cu  0.47376344  0.11221102  0.64347926     1.04300
C53         C  0.03066938  0.14237032  0.57954755     0.92500
C54         C  0.46419602  0.10562645  0.74558134     0.91600
C55         C  0.99716265  0.06518715  0.65883513     0.83800
C56         C  0.99198921  0.18205135  0.66190348     0.90100
O57         O  0.37870564  0.50183960  0.91645477    -0.73700
O58         O  0.35231488  0.44632802  0.03648063    -0.74700
O59         O  0.31959590  0.47449283  0.97713698    -0.63300
O60         O  0.41062264  0.47406524  0.97506240    -0.71700
O61         O  0.43616950  0.02374088  0.02100978    -0.71300
O62         O  0.34559441  0.02410707  0.01915771    -0.62500
O63         O  0.37713635  0.99714705  0.08072078    -0.75000
O64         O  0.40495420  0.05051701  0.95847554    -0.73800
Cu65       Cu  0.36423768  0.47242859  0.97488263     1.04600
Cu66       Cu  0.39170387  0.02559662  0.02123409     1.04300
C67         C  0.39750628  0.03404751  0.91876274     0.92500
C68         C  0.36146028  0.46196660  0.07667123     0.91600
C69         C  0.31899294  0.99951638  0.99805058     0.83800
C70         C  0.43840718  0.99915301  0.00015546     0.90100
O71         O  0.16301730  0.47997443  0.02351464    -0.73700
O72         O  0.07262178  0.48080427  0.02282156    -0.74700
O73         O  0.10200708  0.44991936  0.96377462    -0.63300
O74         O  0.13263177  0.51096662  0.08124451    -0.71700
O75         O  0.15620235  0.05619459  0.03719318    -0.71300
O76         O  0.12804539  0.99892113  0.91704204    -0.62500
O77         O  0.09692519  0.02718528  0.97645646    -0.75000
O78         O  0.18805632  0.02740635  0.97691983    -0.73800
Cu79       Cu  0.11691403  0.47872831  0.02437059     1.04600
Cu80       Cu  0.14333242  0.02913528  0.97547476     1.04300
C81         C  0.19027371  0.00327951  0.99870992     0.92500
C82         C  0.07066864  0.00294726  0.99808544     0.91600
C83         C  0.10830808  0.46417486  0.92282416     0.83800
C84         C  0.14766820  0.04118068  0.07749822     0.90100
C85         C  0.47206006  0.99987314  0.00019543    -0.06900
C86         C  0.48390522  0.49520455  0.04049357    -0.18000
C87         C  0.01855441  0.50156534  0.04278005     0.10300
C88         C  0.03720539  0.00257234  0.99774829    -0.06800
C89         C  0.02182598  0.00175828  0.95384781    -0.18000
C90         C  0.49063611  0.00328238  0.95790946     0.10400
S91         S  0.03529010  0.50043127  0.10078892    -0.33000
S92         S  0.47520016  0.00755458  0.90042565    -0.33000
H93         H  0.46027860  0.02741368  0.91651049     0.28400
H94         H  0.07061407  0.52305294  0.08977188     0.26600
H95         H  0.46947484  0.49236621  0.07288521     0.18900
H96         H  0.03518071  0.00234192  0.92125886     0.19000
C97         C  0.28604452  0.00045023  0.99717321    -0.06900
C98         C  0.27328203  0.00595611  0.04009934    -0.18000
C99         C  0.24229824  0.00737932  0.04150986     0.10300
C100        C  0.22357934  0.00326430  0.99907550    -0.06800
C101        C  0.23745922  0.50233019  0.95775117    -0.18000
C102        C  0.26843353  0.50089805  0.95577779     0.10400
S103        S  0.22826120  0.01496694  0.09832745    -0.33000
S104        S  0.28575018  0.50062794  0.89794046    -0.33000
H105        H  0.32109606  0.52111834  0.91113505     0.28400
H106        H  0.21315638  0.03419327  0.08077780     0.28400
H107        H  0.28753278  0.00908992  0.07281337     0.18900
H108        H  0.22473862  0.50258287  0.92494611     0.19000
C109        C  0.41089374  0.05382875  0.87378375    -0.06900
C110        C  0.44035610  0.08755243  0.87615911    -0.18000
C111        C  0.45683177  0.10619936  0.83513680     0.10300
C112        C  0.44427065  0.09073896  0.79001786    -0.06800
C113        C  0.41359528  0.05797324  0.78749337    -0.18000
C114        C  0.39666474  0.03942140  0.82858958     0.10400
S115        S  0.49355426  0.14968478  0.84306103    -0.33000
S116        S  0.35421466  0.50083458  0.82184770    -0.33000
H117        H  0.35193167  0.50081409  0.77204880     0.28400
H118        H  0.48588444  0.16353721  0.80293779     0.28400
H119        H  0.45129235  0.09935330  0.91034945     0.18900
H120        H  0.40368643  0.04608579  0.75305446     0.19000
C121        C  0.09264040  0.44244286  0.87944503    -0.06900
C122        C  0.06050359  0.41116806  0.88344920    -0.18000
C123        C  0.04105455  0.39288984  0.84321647     0.10300
C124        C  0.05340765  0.40641272  0.79739296    -0.06800
C125        C  0.08661296  0.43640368  0.79346991    -0.18000
C126        C  0.10642266  0.45414044  0.83355434     0.10400
S127        S  0.50876775  0.35036200  0.84418519    -0.33000
S128        S  0.14899921  0.49158246  0.82330448    -0.33000
H129        H  0.16486453  0.48552239  0.86266994     0.28400
H130        H  0.51470789  0.33618094  0.80264185     0.28400
H131        H  0.04972252  0.40143016  0.91825194     0.18900
H132        H  0.09699728  0.44691136  0.75878217     0.19000
C133        C  0.99268136  0.28005004  0.67160682    -0.06900
C134        C  0.96155153  0.24956179  0.65949286    -0.18000
C135        C  0.96012487  0.21709823  0.65582610     0.10300
C136        C  0.99090335  0.21521022  0.66412800    -0.06800
C137        C  0.52983876  0.24960080  0.67562404    -0.18000
C138        C  0.53143882  0.28204352  0.67685940     0.10400
S139        S  0.91861125  0.17877852  0.64172412    -0.33000
S140        S  0.57285380  0.31985990  0.69202084    -0.33000
H141        H  0.55844146  0.33609052  0.71993680     0.28400
H142        H  0.89798991  0.19489227  0.64368350     0.28400
H143        H  0.93840580  0.25139148  0.65224055     0.18900
H144        H  0.55361819  0.24876080  0.68218125     0.19000
C145        C  0.99697652  0.46822803  0.67595779    -0.06900
C146        C  0.46806374  0.46900710  0.67610696    -0.18000
C147        C  0.50829846  0.02033188  0.62384801     0.10300
C148        C  0.99802475  0.03229315  0.65986737    -0.06800
C149        C  0.00566948  0.02189885  0.70311224    -0.18000
C150        C  0.02855799  0.50058785  0.67530959     0.10400
S151        S  0.51636145  0.04301208  0.56806914    -0.33000
S152        S  0.07100340  0.50447447  0.68244877    -0.33000
H153        H  0.05995286  0.47785378  0.71649554     0.28400
H154        H  0.51777763  0.01724265  0.54000510     0.28400
H155        H  0.44404650  0.44411641  0.67795927     0.18900
H156        H  0.01066446  0.03800193  0.73460766     0.19000
C157        C  0.05135842  0.15040762  0.53493621    -0.06900
C158        C  0.08595658  0.15690398  0.53792214    -0.18000
C159        C  0.10515765  0.15910756  0.49725094     0.10300
C160        C  0.08929748  0.15351234  0.45204820    -0.06800
C161        C  0.05586068  0.14992014  0.44872417    -0.18000
C162        C  0.03706558  0.14895904  0.48936671     0.10400
S163        S  0.14981637  0.16932379  0.50554158    -0.33000
S164        S  0.99522417  0.14601275  0.48027853    -0.33000
H165        H  0.50468796  0.17071744  0.52398967     0.28400
H166        H  0.16203840  0.18798809  0.46292457     0.28400
H167        H  0.09800704  0.15933348  0.57230076     0.18900
H168        H  0.04363509  0.14652365  0.41423959     0.19000
C169        C  0.15381194  0.06182918  0.12225267    -0.06900
C170        C  0.15301788  0.04578126  0.16554483    -0.18000
C171        C  0.15242451  0.06080960  0.20927850     0.10300
C172        C  0.15159961  0.09251312  0.21052401    -0.06800
C173        C  0.15443133  0.10956406  0.16740527    -0.18000
C174        C  0.15613480  0.09507999  0.12372831     0.10400
S175        S  0.14972769  0.03646673  0.26164746    -0.33000
S176        S  0.15864044  0.11944981  0.07144950    -0.33000
H177        H  0.18946933  0.12068414  0.05543753     0.28400
H178        H  0.18065491  0.06400803  0.28127773     0.28400
H179        H  0.15185331  0.02065017  0.16542604     0.18900
H180        H  0.15451552  0.13417940  0.16752957     0.19000
C181        C  0.40780926  0.35414961  0.46131595    -0.06900
C182        C  0.43722138  0.34964972  0.45970276    -0.18000
C183        C  0.45389951  0.34816908  0.50115465     0.10300
C184        C  0.44175686  0.35227446  0.54583337    -0.06800
C185        C  0.41074702  0.35386790  0.54772924    -0.18000
C186        C  0.39343921  0.35450402  0.50619011     0.10400
S187        S  0.49036011  0.34073916  0.49445635    -0.33000
S188        S  0.35317210  0.35569225  0.51157595    -0.33000
H189        H  0.35003855  0.35236967  0.56121299     0.28400
H190        H  0.48342920  0.32098368  0.53615362     0.28400
H191        H  0.44803406  0.34817661  0.42579570     0.18900
H192        H  0.40089732  0.35626320  0.58191846     0.19000
C193        C  0.46932885  0.47052715  0.33331022    -0.06900
C194        C  0.48274758  0.48865540  0.37621872    -0.18000
C195        C  0.01300362  0.02211464  0.37472793     0.10300
C196        C  0.03228090  0.03536260  0.33255627    -0.06800
C197        C  0.01979700  0.01643316  0.29004950    -0.18000
C198        C  0.48776194  0.48472531  0.29067422     0.10400
S199        S  0.02645595  0.04523916  0.43069977    -0.33000
S200        S  0.47146660  0.46477538  0.23327270    -0.33000
H201        H  0.43609077  0.45274263  0.24357515     0.28400
H202        H  0.04037341  0.07871855  0.41102850     0.28400
H203        H  0.46850088  0.47809172  0.40892877     0.18900
H204        H  0.03453747  0.02668643  0.25759960     0.19000
C205        C  0.21953880  0.22032954  0.33112227    -0.06900
C206        C  0.21936826  0.25189286  0.32579931    -0.18000
C207        C  0.25046794  0.28404369  0.32495021     0.10300
C208        C  0.28277824  0.28515937  0.33136803    -0.06800
C209        C  0.28310928  0.25365565  0.33558291    -0.18000
C210        C  0.25204106  0.22128017  0.33489902     0.10400
S211        S  0.24722071  0.32233902  0.31240896    -0.33000
S212        S  0.25477742  0.18169377  0.33620086    -0.33000
H213        H  0.29144759  0.19768956  0.33802744     0.28400
H214        H  0.27634024  0.33708168  0.28203011     0.28400
H215        H  0.19477380  0.25155787  0.32164636     0.18900
H216        H  0.30793153  0.25448285  0.33949288     0.19000
C217        C  0.35696461  0.44164713  0.12004439    -0.06900
C218        C  0.33950175  0.44539912  0.15926050    -0.18000
C219        C  0.33771568  0.42892209  0.20249748     0.10300
C220        C  0.35531009  0.40948778  0.20755669    -0.06800
C221        C  0.37207745  0.40538547  0.16752511    -0.18000
C222        C  0.37288388  0.42091221  0.12425500     0.10400
S223        S  0.31258699  0.43393432  0.24914889    -0.33000
S224        S  0.39814511  0.41664865  0.07713856    -0.33000
H225        H  0.36933017  0.40005462  0.04615151     0.28400
H226        H  0.29564459  0.39844071  0.26168586     0.28400
H227        H  0.32710060  0.46121821  0.15611917     0.18900
H228        H  0.38598824  0.39099128  0.17009207     0.19000
O229        O  0.43484602  0.91284027  0.31648543    -0.73700
O230        O  0.34290405  0.82382149  0.31828930    -0.74700
O231        O  0.37506190  0.88279565  0.25776155    -0.63300
O232        O  0.40308509  0.85429137  0.37791011    -0.71700
O233        O  0.37935605  0.87977583  0.41968262    -0.71300
O234        O  0.35275309  0.90947507  0.29998256    -0.62500
O235        O  0.31932146  0.84976459  0.35955369    -0.75000
O236        O  0.41205538  0.93869193  0.35990710    -0.73800
Cu237      Cu  0.38965242  0.86740066  0.31618474     1.04600
Cu238      Cu  0.36496728  0.89520791  0.36130335     1.04300
C239        C  0.43783573  0.93994665  0.33747656     0.92500
C240        C  0.31646011  0.82264606  0.33866143     0.91600
C241        C  0.36057439  0.90168782  0.25983591     0.83800
C242        C  0.39590292  0.86288562  0.41805622     0.90100
O243        O  0.16026924  0.68795053  0.31377915    -0.73700
O244        O  0.07012730  0.59630448  0.30985417    -0.74700
O245        O  0.09961643  0.65450767  0.37212929    -0.63300
O246        O  0.13024166  0.62919053  0.25119586    -0.71700
O247        O  0.15361523  0.60341069  0.29219757    -0.71300
O248        O  0.12473041  0.63039529  0.41344616    -0.62500
O249        O  0.09449249  0.57199125  0.35273557    -0.75000
O250        O  0.18476694  0.66280623  0.35413584    -0.73800
Cu251      Cu  0.11435072  0.64295603  0.31022658     1.04600
Cu252      Cu  0.14044083  0.61645428  0.35446512     1.04300
C253        C  0.18697332  0.68978630  0.33435641     0.92500
C254        C  0.06787817  0.57005545  0.33193039     0.91600
C255        C  0.10661782  0.64570110  0.41200596     0.83800
C256        C  0.14604054  0.61150996  0.25222982     0.90100
O257        O  0.50559705  0.87989148  0.75071904    -0.73700
O258        O  0.44852214  0.85211457  0.63088363    -0.74700
O259        O  0.47611472  0.81995906  0.69021060    -0.63300
O260        O  0.47790420  0.91144189  0.69133572    -0.71700
O261        O  0.02368043  0.93362583  0.64538665    -0.71300
O262        O  0.02253491  0.84248040  0.64791320    -0.62500
O263        O  0.99453202  0.87356976  0.58730440    -0.75000
O264        O  0.05209618  0.90318558  0.70654942    -0.73800
Cu265      Cu  0.47535247  0.86492639  0.69226285     1.04600
Cu266      Cu  0.02487445  0.88889942  0.64535146     1.04300
C267        C  0.03710823  0.89628596  0.74702745     0.92500
C268        C  0.46384335  0.85955814  0.59064340     0.91600
C269        C  0.99797452  0.81633757  0.66927578     0.83800
C270        C  0.99987604  0.93653054  0.66716789     0.90100
O271        O  0.04858308  0.65063439  0.62321653    -0.73700
O272        O  0.99435546  0.62365136  0.74440276    -0.74700
O273        O  0.02169582  0.59228978  0.68428706    -0.63300
O274        O  0.02054834  0.68236385  0.68383731    -0.71700
O275        O  0.47360946  0.65812715  0.64344019    -0.71300
O276        O  0.47361960  0.56754768  0.64690260    -0.62500
O277        O  0.44649448  0.59997142  0.70591900    -0.75000
O278        O  0.50103003  0.62502338  0.58413243    -0.73800
Cu279      Cu  0.02304005  0.63827696  0.68520575     1.04600
Cu280      Cu  0.47200025  0.61194658  0.64359317     1.04300
C281        C  0.03269746  0.64148585  0.58326390     0.92500
C282        C  0.46267409  0.60740144  0.74572451     0.91600
C283        C  0.99640027  0.56505679  0.66520793     0.83800
C284        C  0.99545698  0.68400634  0.66365499     0.90100
O285        O  0.38024157  0.00067725  0.91801689    -0.73700
O286        O  0.35286108  0.94744386  0.04012216    -0.74700
O287        O  0.32076591  0.97436514  0.97797149    -0.63300
O288        O  0.41192215  0.97420150  0.97925723    -0.71700
O289        O  0.43501176  0.52257881  0.01902914    -0.71300
O290        O  0.34463659  0.52349084  0.01999752    -0.62500
O291        O  0.37646648  0.49526955  0.07941876    -0.75000
O292        O  0.40390673  0.55091247  0.95861043    -0.73800
Cu293      Cu  0.36543872  0.97238227  0.97750372     1.04600
Cu294      Cu  0.39073139  0.52479095  0.02070330     1.04300
C295        C  0.39615970  0.53518354  0.91831508     0.92500
C296        C  0.36130520  0.96372554  0.07987443     0.91600
C297        C  0.31795012  0.49929872  0.99850464     0.83800
C298        C  0.43707983  0.49831749  0.99691050     0.90100
O299        O  0.16391240  0.97909762  0.02018493    -0.73700
O300        O  0.07300185  0.97884164  0.01966653    -0.74700
O301        O  0.10393879  0.95023426  0.95903832    -0.63300
O302        O  0.13226035  0.00780193  0.07960330    -0.71700
O303        O  0.15612617  0.55804818  0.03578509    -0.71300
O304        O  0.12607102  0.49739958  0.91928199    -0.62500
O305        O  0.09622527  0.52778666  0.97698428    -0.75000
O306        O  0.18692812  0.52701304  0.97781860    -0.73800
Cu307      Cu  0.11758740  0.97728807  0.02106591     1.04600
Cu308      Cu  0.14239292  0.52920088  0.97592890     1.04300
C309        C  0.18927633  0.50345416  0.00100761     0.92500
C310        C  0.07022981  0.50448696  0.00015129     0.91600
C311        C  0.11079756  0.96557221  0.91882619     0.83800
C312        C  0.14773781  0.54417124  0.07678566     0.90100
C313        C  0.47044104  0.49846620  0.99696203    -0.06900
C314        C  0.48615084  0.99767008  0.04377083    -0.18000
C315        C  0.01984374  0.00198384  0.04012580     0.10300
C316        C  0.03701744  0.50473175  0.00037951    -0.06800
C317        C  0.02301609  0.50730200  0.95686837    -0.18000
C318        C  0.48938613  0.50242700  0.95488730     0.10400
S319        S  0.03828167  0.00455333  0.09820337    -0.33000
S320        S  0.47451960  0.50751721  0.89740871    -0.33000
H321        H  0.45898526  0.52676672  0.91370467     0.28400
H322        H  0.07322733  0.02674279  0.08482581     0.26600
H323        H  0.47207383  0.99538467  0.07632581     0.18900
H324        H  0.03717117  0.50996653  0.92426943     0.19000
C325        C  0.28507231  0.50035606  0.99834368    -0.06900
C326        C  0.27032187  0.50148114  0.04197522    -0.18000
C327        C  0.23926609  0.50279846  0.04396708     0.10300
C328        C  0.22253906  0.50314648  0.00134929    -0.06800
C329        C  0.23638622  0.99802035  0.95610061    -0.18000
C330        C  0.26739849  0.99662212  0.95466422     0.10400
S331        S  0.22283395  0.50484382  0.10184147    -0.33000
S332        S  0.28231483  0.99102979  0.89743632    -0.33000
H333        H  0.31803991  0.01357551  0.90694465     0.28400
H334        H  0.20927544  0.52639081  0.08831767     0.28400
H335        H  0.28309421  0.50129613  0.07476136     0.18900
H336        H  0.22206667  0.99491374  0.92345549     0.19000
C337        C  0.40934761  0.55567672  0.87379945    -0.06900
C338        C  0.43932533  0.58904601  0.87642410    -0.18000
C339        C  0.45579299  0.60791918  0.83548765     0.10300
C340        C  0.44267543  0.59300453  0.79025909    -0.06800
C341        C  0.41136422  0.56081582  0.78762151    -0.18000
C342        C  0.39449157  0.54204923  0.82857705     0.10400
S343        S  0.49324853  0.65091999  0.84361542    -0.33000
S344        S  0.35717158  0.99749241  0.82206923    -0.33000
H345        H  0.35312116  0.99885301  0.77274238     0.28400
H346        H  0.48605640  0.66537154  0.80372828     0.28400
H347        H  0.45070813  0.60028856  0.91067308     0.18900
H348        H  0.40091238  0.54945566  0.75311758     0.19000
C349        C  0.09641894  0.94480108  0.87431217    -0.06900
C350        C  0.06559056  0.91214199  0.87687184    -0.18000
C351        C  0.04705568  0.89433957  0.83587814     0.10300
C352        C  0.05868363  0.90990262  0.79089008    -0.06800
C353        C  0.09089971  0.94115648  0.78811230    -0.18000
C354        C  0.11012719  0.95828359  0.82892139     0.10400
S355        S  0.50801007  0.85264449  0.84502686    -0.33000
S356        S  0.15199292  0.99704815  0.82029404    -0.33000
H357        H  0.16824000  0.99056254  0.85882136     0.28400
H358        H  0.51391032  0.83763830  0.80431617     0.28400
H359        H  0.05512202  0.90076705  0.91116035     0.18900
H360        H  0.10087090  0.95298973  0.75387775     0.19000
C361        C  0.99759464  0.78269198  0.66976736    -0.06900
C362        C  0.96543418  0.75159026  0.66515915    -0.18000
C363        C  0.96363682  0.71892461  0.66296666     0.10300
C364        C  0.99493644  0.71735704  0.66517357    -0.06800
C365        C  0.52818920  0.74913697  0.67939069    -0.18000
C366        C  0.52971658  0.78146711  0.68252504     0.10400
S367        S  0.92113276  0.67981303  0.65962119    -0.33000
S368        S  0.56958425  0.81812998  0.70488781    -0.33000
H369        H  0.55313169  0.83374734  0.72966798     0.28400
H370        H  0.90115686  0.69646443  0.65501092     0.28400
H371        H  0.94166115  0.75299867  0.66287410     0.18900
H372        H  0.55129012  0.74782321  0.68900616     0.19000
C373        C  0.00006793  0.96977338  0.66562986    -0.06900
C374        C  0.50898645  0.98897453  0.62644853    -0.18000
C375        C  0.46655531  0.49999771  0.67528258     0.10300
C376        C  0.99556314  0.53125780  0.66862079    -0.06800
C377        C  0.02748530  0.53152719  0.67082286    -0.18000
C378        C  0.00663586  0.99081437  0.70646432     0.10400
S379        S  0.42469967  0.49780028  0.68213468    -0.33000
S380        S  0.01661283  0.97955483  0.76356695    -0.33000
H381        H  0.03444352  0.96292757  0.74583401     0.28400
H382        H  0.40440159  0.46137557  0.68779352     0.28400
H383        H  0.51384639  0.97805200  0.59473405     0.18900
H384        H  0.05190888  0.55613375  0.66961004     0.19000
C385        C  0.05346665  0.64819627  0.53907987    -0.06900
C386        C  0.08614942  0.65000122  0.54231324    -0.18000
C387        C  0.10534014  0.65184019  0.50181584     0.10300
C388        C  0.09133382  0.65083632  0.45627887    -0.06800
C389        C  0.05961602  0.65108274  0.45308069    -0.18000
C390        C  0.04091112  0.65030445  0.49370605     0.10400
S391        S  0.14756528  0.65566955  0.51106699    -0.33000
S392        S  0.00155030  0.65246998  0.48496000    -0.33000
H393        H  0.50564749  0.67053757  0.52445568     0.28400
H394        H  0.16360297  0.67862799  0.47293127     0.28400
H395        H  0.09663657  0.64915252  0.57674989     0.18900
H396        H  0.04869167  0.65093446  0.41857080     0.19000
C397        C  0.15349254  0.56627080  0.11933530    -0.06900
C398        C  0.16647891  0.55950689  0.16090910    -0.18000
C399        C  0.16763301  0.57625928  0.20395053     0.10300
C400        C  0.15338506  0.59889241  0.20656064    -0.06800
C401        C  0.14205727  0.60682135  0.16409163    -0.18000
C402        C  0.14240049  0.59127429  0.12083340     0.10400
S403        S  0.18730916  0.56705120  0.25370178    -0.33000
S404        S  0.12455775  0.60145174  0.06985876    -0.33000
H405        H  0.15590118  0.61483445  0.04409088     0.28400
H406        H  0.20783247  0.60247882  0.26695277     0.28400
H407        H  0.17563977  0.54081794  0.15989229     0.18900
H408        H  0.13153649  0.62438349  0.16456541     0.19000
C409        C  0.40873282  0.85516893  0.46271519    -0.06900
C410        C  0.43780100  0.85014506  0.46050429    -0.18000
C411        C  0.45450202  0.84825265  0.50172850     0.10300
C412        C  0.44287799  0.85275465  0.54658182    -0.06800
C413        C  0.41199865  0.85455211  0.54897193    -0.18000
C414        C  0.39449485  0.85526258  0.50776680     0.10400
S415        S  0.49013240  0.83960636  0.49464776    -0.33000
S416        S  0.35403579  0.85604093  0.51375897    -0.33000
H417        H  0.35117024  0.85262665  0.56340322     0.28400
H418        H  0.48313226  0.82015467  0.53665022     0.28400
H419        H  0.44830293  0.84860773  0.42637289     0.18900
H420        H  0.40235582  0.85699345  0.58329754     0.19000
C421        C  0.47134517  0.97305144  0.33613248    -0.06900
C422        C  0.48397872  0.99243339  0.37837468    -0.18000
C423        C  0.02012068  0.52018298  0.37764922     0.10300
C424        C  0.03402827  0.53743988  0.33420918    -0.06800
C425        C  0.01502584  0.52342775  0.29210216    -0.18000
C426        C  0.49092507  0.98583529  0.29391015     0.10400
S427        S  0.04149732  0.53709489  0.43404287    -0.33000
S428        S  0.47590969  0.96440851  0.23703581    -0.33000
H429        H  0.44054549  0.95408719  0.24463935     0.28400
H430        H  0.05272863  0.57220335  0.42340815     0.28400
H431        H  0.46900258  0.98297874  0.41079576     0.18900
H432        H  0.02543111  0.53665357  0.25874077     0.19000
C433        C  0.22041904  0.72352879  0.33570727    -0.06900
C434        C  0.21925992  0.75481426  0.33548182    -0.18000
C435        C  0.24994382  0.78759086  0.33683209     0.10300
C436        C  0.28276572  0.78922343  0.33839846    -0.06800
C437        C  0.28389147  0.75797306  0.33829843    -0.18000
C438        C  0.25331762  0.72526058  0.33685732     0.10400
S439        S  0.24664254  0.82679655  0.33387334    -0.33000
S440        S  0.25715018  0.68630203  0.33382082    -0.33000
H441        H  0.29385251  0.70293442  0.33605913     0.28400
H442        H  0.20992631  0.81033700  0.33478779     0.28400
H443        H  0.19410916  0.75352213  0.33427570     0.18900
H444        H  0.30904236  0.75925305  0.33923530     0.19000
C445        C  0.35434953  0.94447958  0.12551304    -0.06900
C446        C  0.35721938  0.96278956  0.16791798    -0.18000
C447        C  0.35683089  0.94863348  0.21235648     0.10300
C448        C  0.35426302  0.91539730  0.21517446    -0.06800
C449        C  0.34942911  0.89627036  0.17307994    -0.18000
C450        C  0.34881416  0.90999218  0.12868007     0.10400
S451        S  0.36311506  0.97589937  0.26349715    -0.33000
S452        S  0.34314496  0.88268415  0.07783467    -0.33000
H453        H  0.31386678  0.88422327  0.06112025     0.28400
H454        H  0.33098263  0.95154879  0.28380232     0.28400
H455        H  0.36088654  0.98895754  0.16657639     0.18900
H456        H  0.34684249  0.87053568  0.17463821     0.19000
O457        O  0.93425418  0.41468899  0.31779259    -0.73700
O458        O  0.84363153  0.32429096  0.31813445    -0.74700
O459        O  0.87609210  0.38289796  0.25677587    -0.63300
O460        O  0.90216222  0.35670743  0.38023069    -0.71700
O461        O  0.87685314  0.38174809  0.41934171    -0.71300
O462        O  0.85160644  0.40869134  0.29597045    -0.62500
O463        O  0.81828440  0.34959076  0.35680703    -0.75000
O464        O  0.90973222  0.44017804  0.35844853    -0.73800
Cu465      Cu  0.88978228  0.36864532  0.31694547     1.04600
Cu466      Cu  0.86313039  0.39582345  0.35904798     1.04300
C467        C  0.93616716  0.44169459  0.33757943     0.92500
C468        C  0.81652052  0.32254965  0.33714200     0.91600
C469        C  0.86079164  0.40106533  0.25672410     0.83800
C470        C  0.89391327  0.36536389  0.41954708     0.90100
O471        O  0.66193036  0.18567409  0.31478147    -0.73700
O472        O  0.57164049  0.09479344  0.31334744    -0.74700
O473        O  0.60122559  0.15469718  0.37315581    -0.63300
O474        O  0.63157399  0.12475070  0.25549179    -0.71700
O475        O  0.65426787  0.09993423  0.30022644    -0.71300
O476        O  0.62653767  0.13224916  0.41760096    -0.62500
O477        O  0.59504269  0.07149944  0.36021644    -0.75000
O478        O  0.68644892  0.16185269  0.35799356    -0.73800
Cu479      Cu  0.61593494  0.14097012  0.31264040     1.04600
Cu480      Cu  0.64159947  0.11572027  0.36052008     1.04300
C481        C  0.68860707  0.18819971  0.33629137     0.92500
C482        C  0.56904748  0.06902760  0.33693653     0.91600
C483        C  0.60857407  0.14760544  0.41405284     0.83800
C484        C  0.64628227  0.10614978  0.25927238     0.90100
O485        O  0.99850580  0.37564512  0.75539130    -0.73700
O486        O  0.94191184  0.34967038  0.63440542    -0.74700
O487        O  0.96865577  0.31600126  0.69319384    -0.63300
O488        O  0.97134623  0.40813647  0.69635968    -0.71700
O489        O  0.52385819  0.43378797  0.64945680    -0.71300
O490        O  0.52508389  0.34373956  0.64712643    -0.62500
O491        O  0.49585338  0.37494974  0.58819042    -0.75000
O492        O  0.55294982  0.40305233  0.70790196    -0.73800
Cu493      Cu  0.96835522  0.36135320  0.69634463     1.04600
Cu494      Cu  0.52608350  0.38962919  0.64662334     1.04300
C495        C  0.53767389  0.39536799  0.74816034     0.92500
C496        C  0.95772175  0.35801880  0.59449303     0.91600
C497        C  0.50073384  0.31713192  0.66799610     0.83800
C498        C  0.49991242  0.43601500  0.67199494     0.90100
O499        O  0.55226990  0.15303835  0.62557836    -0.73700
O500        O  0.49754721  0.12379273  0.74692920    -0.74700
O501        O  0.52590779  0.09390331  0.68567257    -0.63300
O502        O  0.52364364  0.18346355  0.68730958    -0.71700
O503        O  0.96812656  0.15512587  0.64040110    -0.71300
O504        O  0.97180230  0.06616055  0.63847575    -0.62500
O505        O  0.94306027  0.09580377  0.70067872    -0.75000
O506        O  0.99725096  0.12492440  0.57837812    -0.73800
Cu507      Cu  0.52657269  0.13956340  0.68778558     1.04600
Cu508      Cu  0.96831158  0.10971615  0.63800275     1.04300
C509        C  0.53629162  0.14430833  0.58561276     0.92500
C510        C  0.95954881  0.10339085  0.74028043     0.91600
C511        C  0.50149940  0.06709982  0.66467366     0.83800
C512        C  0.49861227  0.18495489  0.66668955     0.90100
O513        O  0.87929378  0.50191677  0.91552786    -0.73700
O514        O  0.85292561  0.44720997  0.03623645    -0.74700
O515        O  0.81984496  0.47409973  0.97532377    -0.63300
O516        O  0.91193644  0.47578273  0.97556310    -0.71700
O517        O  0.93459152  0.02104731  0.01504133    -0.71300
O518        O  0.84307630  0.01898267  0.01462965    -0.62500
O519        O  0.87577190  0.99243571  0.07488157    -0.75000
O520        O  0.90227663  0.04717699  0.95362926    -0.73800
Cu521      Cu  0.86499580  0.47296154  0.97427116     1.04600
Cu522      Cu  0.88961322  0.02160424  0.01593244     1.04300
C523        C  0.89503554  0.03116545  0.91357164     0.92500
C524        C  0.86156804  0.46314510  0.07624570     0.91600
C525        C  0.81664382  0.99435821  0.99336591     0.83800
C526        C  0.93754510  0.99710031  0.99357401     0.90100
O527        O  0.66239049  0.47724558  0.02145844    -0.73700
O528        O  0.57102310  0.47607887  0.02194817    -0.74700
O529        O  0.60252275  0.44844075  0.96074302    -0.63300
O530        O  0.63047232  0.50505944  0.08189470    -0.71700
O531        O  0.65559115  0.05332894  0.04288028    -0.71300
O532        O  0.62741120  0.99774303  0.92164265    -0.62500
O533        O  0.59640850  0.02560831  0.98217223    -0.75000
O534        O  0.68708440  0.02467645  0.98149294    -0.73800
Cu535      Cu  0.61590583  0.47498952  0.02294399     1.04600
Cu536      Cu  0.64265162  0.02706187  0.98070662     1.04300
C537        C  0.68892679  0.99997010  0.00226547     0.92500
C538        C  0.56995421  0.00133013  0.00347715     0.91600
C539        C  0.60932759  0.46403012  0.92074765     0.83800
C540        C  0.64686378  0.03805622  0.08296844     0.90100
C541        C  0.97163546  0.99874140  0.99376309    -0.06900
C542        C  0.98619144  0.50011418  0.04056900    -0.18000
C543        C  0.51587873  0.49581550  0.04291154     0.10300
C544        C  0.53667172  0.00148804  0.00360792    -0.06800
C545        C  0.52267449  0.00398471  0.96005818    -0.18000
C546        C  0.98929138  0.99995786  0.95139598     0.10400
S547        S  0.53149618  0.49261651  0.10080292    -0.33000
S548        S  0.97216894  0.00024872  0.89336893    -0.33000
H549        H  0.95696992  0.02044544  0.90680348     0.28400
H550        H  0.56694885  0.51624051  0.09154804     0.26600
H551        H  0.97198831  0.49752283  0.07310785     0.18900
H552        H  0.53673207  0.00633154  0.92746692     0.19000
C553        C  0.78342547  0.99462128  0.99419167    -0.06900
C554        C  0.76735487  0.99152624  0.03820797    -0.18000
C555        C  0.73685992  0.99369229  0.04201942     0.10300
C556        C  0.72179622  0.99886011  0.00080515    -0.06800
C557        C  0.73792815  0.50320252  0.95611867    -0.18000
C558        C  0.76899254  0.50196162  0.95377814     0.10400
S559        S  0.71935592  0.99113318  0.10065083    -0.33000
S560        S  0.78765181  0.50465250  0.89598965    -0.33000
H561        H  0.82271593  0.52371035  0.91094274     0.28400
H562        H  0.70788603  0.01522524  0.09234367     0.28400
H563        H  0.77898132  0.98789443  0.07001704     0.18900
H564        H  0.72587627  0.50504354  0.92354433     0.19000
C565        C  0.90791242  0.05148231  0.86903906    -0.06900
C566        C  0.93839903  0.08439916  0.87131119    -0.18000
C567        C  0.95434145  0.10331238  0.83028066     0.10300
C568        C  0.94017531  0.08881227  0.78518556    -0.06800
C569        C  0.90840717  0.05700697  0.78303107    -0.18000
C570        C  0.89204469  0.03826747  0.82423650     0.10400
S571        S  0.99255087  0.14581449  0.83830207    -0.33000
S572        S  0.85301777  0.50038532  0.82153037    -0.33000
H573        H  0.84759350  0.50277600  0.77281775     0.28400
H574        H  0.98450508  0.16122505  0.80035425     0.28400
H575        H  0.95053952  0.09526411  0.90536286     0.18900
H576        H  0.89717395  0.04586135  0.74872715     0.19000
C577        C  0.59548866  0.44347665  0.87613705    -0.06900
C578        C  0.56474567  0.41075394  0.87829738    -0.18000
C579        C  0.54674005  0.39300375  0.83705333     0.10300
C580        C  0.55885010  0.40872306  0.79225857    -0.06800
C581        C  0.59101996  0.44006120  0.78994230    -0.18000
C582        C  0.60971440  0.45714580  0.83104160     0.10400
S583        S  0.00081938  0.35262806  0.85309834    -0.33000
S584        S  0.65154048  0.49612035  0.82317468    -0.33000
H585        H  0.66744605  0.48974902  0.86222078     0.28400
H586        H  0.00504778  0.33511266  0.81390965     0.28400
H587        H  0.55393087  0.39929630  0.91242997     0.18900
H588        H  0.60133971  0.45201718  0.75587168     0.19000
C589        C  0.50088283  0.28382988  0.66809846    -0.06900
C590        C  0.46928839  0.25295317  0.65935943    -0.18000
C591        C  0.46743698  0.22029844  0.65856965     0.10300
C592        C  0.49822000  0.21844846  0.66671496    -0.06800
C593        C  0.02188949  0.24598803  0.67668308    -0.18000
C594        C  0.02296125  0.27801625  0.68120229     0.10400
S595        S  0.42528257  0.18165833  0.64862381    -0.33000
S596        S  0.06336338  0.31499294  0.70158218    -0.33000
H597        H  0.04739143  0.32974284  0.72935054     0.28400
H598        H  0.40538867  0.19846081  0.64503389     0.28400
H599        H  0.44594860  0.25457825  0.65280961     0.18900
H600        H  0.04561141  0.24516883  0.68381062     0.19000
C601        C  0.50017433  0.46960524  0.67395882    -0.06900
C602        C  0.96501608  0.46793595  0.67500488    -0.18000
C603        C  0.99135926  0.01117864  0.61897616     0.10300
C604        C  0.50192042  0.03419524  0.66529898    -0.06800
C605        C  0.49605984  0.01663367  0.70843777    -0.18000
C606        C  0.53153916  0.50217936  0.67287849     0.10400
S607        S  0.98247217  0.02413086  0.56225368    -0.33000
S608        S  0.57435891  0.50654922  0.67680297    -0.33000
H609        H  0.56460781  0.48004745  0.71076855     0.28400
H610        H  0.97633084  0.99408381  0.53663441     0.28400
H611        H  0.94082366  0.44315947  0.67611050     0.18900
H612        H  0.49130445  0.02756524  0.74028504     0.19000
C613        C  0.55674543  0.15216562  0.54084198    -0.06900
C614        C  0.59132934  0.15860100  0.54334150    -0.18000
C615        C  0.61011443  0.16042964  0.50235871     0.10300
C616        C  0.59382360  0.15456772  0.45740008    -0.06800
C617        C  0.56040612  0.15100310  0.45458576    -0.18000
C618        C  0.54203264  0.15037939  0.49545644     0.10400
S619        S  0.65478773  0.17050607  0.50993695    -0.33000
S620        S  0.50008747  0.14729750  0.48679062    -0.33000
H621        H  0.99934286  0.16880687  0.51810257     0.28400
H622        H  0.66667134  0.18887017  0.46704766     0.28400
H623        H  0.60365644  0.16123783  0.57755878     0.18900
H624        H  0.54784459  0.14735765  0.42030468     0.19000
C625        C  0.65310478  0.05860689  0.12793344    -0.06900
C626        C  0.64934088  0.04154743  0.17136436    -0.18000
C627        C  0.64943117  0.05722005  0.21485343     0.10300
C628        C  0.65252917  0.09076285  0.21570773    -0.06800
C629        C  0.65781179  0.10846699  0.17262415    -0.18000
C630        C  0.65878833  0.09326592  0.12921535     0.10400
S631        S  0.64212387  0.03149699  0.26737690    -0.33000
S632        S  0.66527582  0.11909438  0.07701838    -0.33000
H633        H  0.69475255  0.11703034  0.06254732     0.28400
H634        H  0.67437179  0.05595483  0.28783034     0.28400
H635        H  0.64531464  0.01522445  0.17155434     0.18900
H636        H  0.66061391  0.13431852  0.17261129     0.19000
C637        C  0.90594443  0.35792515  0.46520677    -0.06900
C638        C  0.93380446  0.35097904  0.46391293    -0.18000
C639        C  0.94941002  0.34801114  0.50550014     0.10300
C640        C  0.93762912  0.35279549  0.55004969    -0.06800
C641        C  0.90816113  0.35708073  0.55166787    -0.18000
C642        C  0.89205231  0.35954237  0.50999042     0.10400
S643        S  0.98416033  0.33796743  0.49912878    -0.33000
S644        S  0.85394898  0.36467560  0.51523848    -0.33000
H645        H  0.85306038  0.36591590  0.56509670     0.28400
H646        H  0.97611208  0.31811062  0.54088080     0.28400
H647        H  0.94427502  0.34868412  0.43013942     0.18900
H648        H  0.89870835  0.36015302  0.58581117     0.19000
C649        C  0.96917583  0.47500829  0.33571836    -0.06900
C650        C  0.98793949  0.48910173  0.37787827    -0.18000
C651        C  0.51568656  0.02395737  0.37942283     0.10300
C652        C  0.53551665  0.03625445  0.33755853    -0.06800
C653        C  0.52290671  0.01715410  0.29520050    -0.18000
C654        C  0.98274990  0.49246235  0.29243524     0.10400
S655        S  0.52905301  0.04785094  0.43477081    -0.33000
S656        S  0.95976865  0.47676698  0.23679073    -0.33000
H657        H  0.92646639  0.46530103  0.25616323     0.28400
H658        H  0.54307156  0.08100240  0.41404835     0.28400
H659        H  0.97744587  0.47578726  0.41116524     0.18900
H660        H  0.53794616  0.02687549  0.26286381     0.19000
C661        C  0.72178575  0.22220754  0.33656886    -0.06900
C662        C  0.71992016  0.25307609  0.33451081    -0.18000
C663        C  0.75016050  0.28616298  0.33453068     0.10300
C664        C  0.78331947  0.28861479  0.33694369    -0.06800
C665        C  0.78519997  0.25775663  0.33840432    -0.18000
C666        C  0.75498804  0.22467576  0.33807923     0.10400
S667        S  0.74584330  0.32465639  0.32868348    -0.33000
S668        S  0.75955047  0.18612652  0.33708233    -0.33000
H669        H  0.79630934  0.20341951  0.33626463     0.28400
H670        H  0.70909511  0.30756397  0.32965799     0.28400
H671        H  0.69452364  0.25121420  0.33285129     0.18900
H672        H  0.81060630  0.25962956  0.33991081     0.19000
C673        C  0.85572576  0.44344405  0.12097935    -0.06900
C674        C  0.84946375  0.45696955  0.16272923    -0.18000
C675        C  0.84929897  0.44301205  0.20747833     0.10300
C676        C  0.85545423  0.41439151  0.21074430    -0.06800
C677        C  0.86020334  0.40004525  0.16854892    -0.18000
C678        C  0.86039689  0.41406757  0.12415273     0.10400
S679        S  0.84345278  0.46387970  0.25947107    -0.33000
S680        S  0.87058414  0.39556767  0.07364167    -0.33000
H681        H  0.83812442  0.38486386  0.05160657     0.28400
H682        H  0.84112089  0.49071278  0.23607891     0.28400
H683        H  0.84578532  0.47941032  0.16025982     0.18900
H684        H  0.86498558  0.37823934  0.17005529     0.19000
O685        O  0.93415824  0.91033285  0.31209208    -0.73700
O686        O  0.84348195  0.81946950  0.31497176    -0.74700
O687        O  0.87474971  0.87791867  0.25250891    -0.63300
O688        O  0.90314957  0.85245563  0.37493306    -0.71700
O689        O  0.87792423  0.87725161  0.41491553    -0.71300
O690        O  0.85136977  0.90432341  0.29279962    -0.62500
O691        O  0.81870237  0.84527775  0.35392871    -0.75000
O692        O  0.90999065  0.93554286  0.35400704    -0.73800
Cu693      Cu  0.88962606  0.86403853  0.31221626     1.04600
Cu694      Cu  0.86353948  0.89135873  0.35530312     1.04300
C695        C  0.93627505  0.93731303  0.33238097     0.92500
C696        C  0.81672415  0.81800092  0.33477430     0.91600
C697        C  0.85968041  0.89631689  0.25316900     0.83800
C698        C  0.89512441  0.86100668  0.41449724     0.90100
O699        O  0.66170207  0.68240336  0.31645502    -0.73700
O700        O  0.57043696  0.59256112  0.31225952    -0.74700
O701        O  0.60042342  0.65146431  0.37370223    -0.63300
O702        O  0.63103729  0.62273221  0.25553270    -0.71700
O703        O  0.65295877  0.59661973  0.29892553    -0.71300
O704        O  0.62446170  0.62733299  0.41731317    -0.62500
O705        O  0.59295178  0.56779737  0.35797553    -0.75000
O706        O  0.68521447  0.65737449  0.35903082    -0.73800
Cu707      Cu  0.61527700  0.63829706  0.31296151     1.04600
Cu708      Cu  0.63986721  0.61153721  0.35980022     1.04300
C709        C  0.68806093  0.68426345  0.33807005     0.92500
C710        C  0.56721977  0.56623094  0.33505533     0.91600
C711        C  0.60706049  0.64331460  0.41432491     0.83800
C712        C  0.64573107  0.60406506  0.25826418     0.90100
O713        O  0.00371622  0.87942878  0.74955975    -0.73700
O714        O  0.94583712  0.85104624  0.62960232    -0.74700
O715        O  0.97352253  0.81894483  0.68977081    -0.63300
O716        O  0.97574962  0.91086976  0.68978097    -0.71700
O717        O  0.52615447  0.93480446  0.64772271    -0.71300
O718        O  0.52565524  0.84391354  0.64930135    -0.62500
O719        O  0.49720815  0.87488385  0.58849536    -0.75000
O720        O  0.55442183  0.90420157  0.70867740    -0.73800
Cu721      Cu  0.97297878  0.86414855  0.69121301     1.04600
Cu722      Cu  0.52756544  0.89016869  0.64703648     1.04300
C723        C  0.53897988  0.89689893  0.74886643     0.92500
C724        C  0.96121204  0.85829756  0.58933876     0.91600
C725        C  0.50077215  0.81761258  0.66996426     0.83800
C726        C  0.50230318  0.93753849  0.66971847     0.90100
O727        O  0.55045662  0.65131236  0.62521613    -0.73700
O728        O  0.49606215  0.62485665  0.74688743    -0.74700
O729        O  0.52358939  0.59327429  0.68709721    -0.63300
O730        O  0.52254654  0.68338375  0.68543541    -0.71700
O731        O  0.97129997  0.65724816  0.64223371    -0.71300
O732        O  0.97195816  0.56692462  0.64360762    -0.62500
O733        O  0.94465883  0.59865636  0.70370678    -0.75000
O734        O  0.99926519  0.62498833  0.58175442    -0.73800
Cu735      Cu  0.52491032  0.63925265  0.68748344     1.04600
Cu736      Cu  0.97009787  0.61122967  0.64125923     1.04300
C737        C  0.53444876  0.64179491  0.58533493     0.92500
C738        C  0.96099475  0.60616998  0.74340902     0.91600
C739        C  0.49828110  0.56592501  0.66826437     0.83800
C740        C  0.49774714  0.68509736  0.66447755     0.90100
O741        O  0.87838490  0.99780233  0.91201639    -0.73700
O742        O  0.85226707  0.94322280  0.03299989    -0.74700
O743        O  0.81883397  0.96980745  0.97210450    -0.63300
O744        O  0.91140142  0.97201724  0.97222638    -0.71700
O745        O  0.93534094  0.52481932  0.01843031    -0.71300
O746        O  0.84406850  0.52332729  0.01775074    -0.62500
O747        O  0.87649610  0.49649962  0.07808162    -0.75000
O748        O  0.90335446  0.55135878  0.95695937    -0.73800
Cu749      Cu  0.86423202  0.96891307  0.97092593     1.04600
Cu750      Cu  0.89050738  0.52570350  0.01923248     1.04300
C751        C  0.89600648  0.53527635  0.91694972     0.92500
C752        C  0.86077312  0.95906744  0.07308130     0.91600
C753        C  0.81770564  0.49877202  0.99626135     0.83800
C754        C  0.93810285  0.50075702  0.99696818     0.90100
O755        O  0.66240624  0.97590015  0.02366222    -0.73700
O756        O  0.57197399  0.97679132  0.02433119    -0.74700
O757        O  0.60276266  0.94855983  0.96260166    -0.63300
O758        O  0.63117493  0.00463113  0.08454172    -0.71700
O759        O  0.65426839  0.55365746  0.03981415    -0.71300
O760        O  0.62613091  0.49738017  0.91925270    -0.62500
O761        O  0.59472056  0.52480094  0.97959293    -0.75000
O762        O  0.68617137  0.52572887  0.97859922    -0.73800
Cu763      Cu  0.61636409  0.97474962  0.02522401     1.04600
Cu764      Cu  0.64130522  0.52711229  0.97791443     1.04300
C765        C  0.68864389  0.50161981  0.00003520     0.92500
C766        C  0.56849195  0.50027863  0.00093398     0.91600
C767        C  0.61006470  0.96439909  0.92274264     0.83800
C768        C  0.64587455  0.53843300  0.07996966     0.90100
C769        C  0.97201027  0.50213658  0.99700267    -0.06900
C770        C  0.98724775  0.00002209  0.03766536    -0.18000
C771        C  0.51825272  0.99850972  0.04596591     0.10300
C772        C  0.53490176  0.49980821  0.00082551    -0.06800
C773        C  0.52138804  0.50307294  0.95727618    -0.18000
C774        C  0.99081212  0.50621976  0.95477704     0.10400
S775        S  0.53478502  0.99679378  0.10386642    -0.33000
S776        S  0.97545529  0.51100860  0.89752303    -0.33000
H777        H  0.96046073  0.53066873  0.91420209     0.28400
H778        H  0.57014618  0.01968017  0.09313692     0.26600
H779        H  0.97393685  0.99951389  0.07026381     0.18900
H780        H  0.53584600  0.50606727  0.92486652     0.19000
C781        C  0.78460843  0.49923082  0.99608032    -0.06900
C782        C  0.76892391  0.49812844  0.03978728    -0.18000
C783        C  0.73787553  0.49934073  0.04215014     0.10300
C784        C  0.72206058  0.50174761  0.99983803    -0.06800
C785        C  0.73791546  0.00198118  0.95672659    -0.18000
C786        C  0.76858040  0.00004270  0.95299113     0.10400
S787        S  0.72029311  0.49866957  0.10020179    -0.33000
S788        S  0.78782706  0.00551926  0.89499908    -0.33000
H789        H  0.82275846  0.02272768  0.91067647     0.28400
H790        H  0.70734810  0.52114388  0.08890823     0.28400
H791        H  0.78104692  0.49641571  0.07237048     0.18900
H792        H  0.72647362  0.00588449  0.92493601     0.19000
C793        C  0.90880005  0.55542018  0.87225233    -0.06900
C794        C  0.93887421  0.58869589  0.87434952    -0.18000
C795        C  0.95495704  0.60725768  0.83311731     0.10300
C796        C  0.94132089  0.59207913  0.78815261    -0.06800
C797        C  0.90991090  0.55996947  0.78607705    -0.18000
C798        C  0.89340064  0.54156165  0.82738274     0.10400
S799        S  0.99269160  0.65016544  0.84057449    -0.33000
S800        S  0.85118307  0.99756598  0.81845097    -0.33000
H801        H  0.84514839  0.00088255  0.77023517     0.28400
H802        H  0.98511689  0.66458399  0.80099015     0.28400
H803        H  0.95063945  0.60007241  0.90838710     0.18900
H804        H  0.89915419  0.54831697  0.75179617     0.19000
C805        C  0.59619350  0.94419254  0.87782327    -0.06900
C806        C  0.56492938  0.91193227  0.87953680    -0.18000
C807        C  0.54700829  0.89453830  0.83807621     0.10300
C808        C  0.55986182  0.91005374  0.79332585    -0.06800
C809        C  0.59245510  0.94095853  0.79147511    -0.18000
C810        C  0.61094161  0.95778796  0.83288843     0.10400
S811        S  0.00907894  0.85177399  0.84351851    -0.33000
S812        S  0.65314522  0.99640321  0.82563464    -0.33000
H813        H  0.66849056  0.98957757  0.86492565     0.28400
H814        H  0.01440683  0.83749135  0.80161740     0.28400
H815        H  0.55360966  0.90059333  0.91352709     0.18900
H816        H  0.60326457  0.95280146  0.75751577     0.19000
C817        C  0.50017343  0.78401676  0.66995365    -0.06900
C818        C  0.46937340  0.75392570  0.65591304    -0.18000
C819        C  0.46747661  0.72125554  0.65330593     0.10300
C820        C  0.49744686  0.71868297  0.66503910    -0.06800
C821        C  0.02697023  0.74856695  0.67055899    -0.18000
C822        C  0.02860499  0.78094400  0.67352774     0.10400
S823        S  0.42633375  0.68363182  0.63584099    -0.33000
S824        S  0.07091979  0.81877434  0.68454144    -0.33000
H825        H  0.05845839  0.83496293  0.71605069     0.28400
H826        H  0.40653823  0.70058384  0.63310660     0.28400
H827        H  0.44684451  0.75625855  0.64634532     0.18900
H828        H  0.05110072  0.74779747  0.67303270     0.19000
C829        C  0.50278274  0.97108251  0.66957996    -0.06900
C830        C  0.99276913  0.98021180  0.62226387    -0.18000
C831        C  0.96388244  0.49904363  0.67192608     0.10300
C832        C  0.49791358  0.53235685  0.67102484    -0.06800
C833        C  0.53001019  0.53297215  0.67054345    -0.18000
C834        C  0.49646601  0.98524715  0.71108941     0.10400
S835        S  0.92192362  0.49706083  0.67464173    -0.33000
S836        S  0.49007528  0.96537382  0.76868189    -0.33000
H837        H  0.51448247  0.95402581  0.76203772     0.28400
H838        H  0.90134634  0.46085116  0.68206377     0.28400
H839        H  0.98784918  0.96382095  0.59113498     0.18900
H840        H  0.55423243  0.55773469  0.66867058     0.19000
C841        C  0.55496798  0.64844536  0.54081398    -0.06900
C842        C  0.58859380  0.65240130  0.54389416    -0.18000
C843        C  0.60745856  0.65371099  0.50325065     0.10300
C844        C  0.59221254  0.64994975  0.45788398    -0.06800
C845        C  0.55970291  0.64848192  0.45460348    -0.18000
C846        C  0.54125391  0.64822856  0.49525054     0.10400
S847        S  0.65088999  0.66040070  0.51191176    -0.33000
S848        S  0.50057337  0.64777695  0.48617408    -0.33000
H849        H  0.00678945  0.67372018  0.52512601     0.28400
H850        H  0.66483604  0.68053854  0.47075764     0.28400
H851        H  0.60007492  0.65355637  0.57833459     0.18900
H852        H  0.54790148  0.64631228  0.42009184     0.19000
C853        C  0.65243292  0.55902594  0.12468032    -0.06900
C854        C  0.65506429  0.54432863  0.16750509    -0.18000
C855        C  0.65575989  0.55966259  0.21157832     0.10300
C856        C  0.65270944  0.59019345  0.21358253    -0.06800
C857        C  0.65209725  0.60587216  0.17059029    -0.18000
C858        C  0.65226249  0.59103595  0.12661489     0.10400
S859        S  0.65808886  0.53732938  0.26347954    -0.33000
S860        S  0.64877173  0.61274981  0.07477425    -0.33000
H861        H  0.68074910  0.61835197  0.05610028     0.28400
H862        H  0.68796602  0.56709686  0.28138557     0.28400
H863        H  0.65577878  0.52011836  0.16676803     0.18900
H864        H  0.65031588  0.62950647  0.17105383     0.19000
C865        C  0.90763241  0.85382946  0.45983419    -0.06900
C866        C  0.93708616  0.84945418  0.45861464    -0.18000
C867        C  0.95327968  0.84761658  0.50031332     0.10300
C868        C  0.94063525  0.85134267  0.54484881    -0.06800
C869        C  0.90946501  0.85264816  0.54625487    -0.18000
C870        C  0.89261957  0.85358489  0.50442250     0.10400
S871        S  0.98981631  0.84026785  0.49404597    -0.33000
S872        S  0.85188525  0.85396488  0.50896725    -0.33000
H873        H  0.85165609  0.85712950  0.55866289     0.28400
H874        H  0.98227295  0.81994814  0.53529414     0.28400
H875        H  0.94830734  0.84838286  0.42485690     0.18900
H876        H  0.89905296  0.85443770  0.58029005     0.19000
C877        C  0.96931252  0.97090789  0.33115254    -0.06900
C878        C  0.98182519  0.99004633  0.37360663    -0.18000
C879        C  0.51441217  0.52021310  0.37758133     0.10300
C880        C  0.53331666  0.53382826  0.33524392    -0.06800
C881        C  0.51965532  0.51612596  0.29216604    -0.18000
C882        C  0.98846552  0.98445682  0.28880606     0.10400
S883        S  0.52892809  0.54236358  0.43405917    -0.33000
S884        S  0.97376289  0.96301341  0.23190028    -0.33000
H885        H  0.93812970  0.95122063  0.23994466     0.28400
H886        H  0.54272514  0.57615600  0.41546348     0.28400
H887        H  0.96720098  0.97991956  0.40616348     0.18900
H888        H  0.53393618  0.52684664  0.25951816     0.19000
C889        C  0.72161817  0.71813206  0.33884866    -0.06900
C890        C  0.72030627  0.74895752  0.33112617    -0.18000
C891        C  0.75072635  0.78181908  0.32984935     0.10300
C892        C  0.78356757  0.78420533  0.33623652    -0.06800
C893        C  0.78508714  0.75359777  0.34406739    -0.18000
C894        C  0.75465195  0.72065228  0.34564180     0.10400
S895        S  0.74721681  0.82006861  0.31700523    -0.33000
S896        S  0.75899693  0.68242848  0.35471671    -0.33000
H897        H  0.79571650  0.69933237  0.35279681     0.28400
H898        H  0.71066124  0.80402687  0.32130393     0.28400
H899        H  0.69522951  0.74730188  0.32567755     0.18900
H900        H  0.81036401  0.75564178  0.34931099     0.19000
C901        C  0.85455376  0.93925651  0.11794740    -0.06900
C902        C  0.85077630  0.95413342  0.16019168    -0.18000
C903        C  0.84969275  0.93946907  0.20454291     0.10300
C904        C  0.85358727  0.90947063  0.20754214    -0.06800
C905        C  0.85575055  0.89374509  0.16504888    -0.18000
C906        C  0.85589985  0.90790624  0.12068878     0.10400
S907        S  0.84560371  0.96196600  0.25557754    -0.33000
S908        S  0.86124873  0.88637319  0.06951386    -0.33000
H909        H  0.82905477  0.87912938  0.04951779     0.28400
H910        H  0.81535979  0.93212196  0.27187981     0.28400
H911        H  0.84928210  0.97790788  0.15878723     0.18900
H912        H  0.85837884  0.87060952  0.16626887     0.19000
loop_ 
_geom_bond_atom_site_label_1 
_geom_bond_atom_site_label_2 
_geom_bond_distance 
_geom_bond_site_symmetry_2 
_ccdc_geom_bond_type 
O1           Cu9   2.004       .  S
O1           C11   1.277       .  A
O2           Cu9   2.001       .  S
O2           C12   1.277       .  A
O3           Cu9   2.001       .  S
O3           C13   1.279       .  A
O4           Cu9   2.011       .  S
O4           C14   1.279       .  A
O5          Cu10   2.013       .  S
O5           C14   1.278       .  A
O6          Cu10   2.016       .  S
O6           C13   1.277       .  A
O7          Cu10   2.010       .  S
O7           C12   1.278       .  A
O8          Cu10   2.002       .  S
O8           C11   1.277       .  A
Cu9         Cu10   2.368       .  S
C11         C193   1.469       .  S
C12         C208   1.479       .  S
C13         C220   1.493       .  S
C14         C181   1.491       .  S
O15         Cu23   2.012       .  S
O15          C25   1.279       .  A
O16         Cu23   2.009       .  S
O16          C26   1.277       .  A
O17         Cu23   2.016       .  S
O17          C27   1.279       .  A
O18         Cu23   2.010       .  S
O18          C28   1.279       .  A
O19         Cu24   2.017       .  S
O19          C28   1.278       .  A
O20         Cu24   2.009       .  S
O20          C27   1.278       .  A
O21         Cu24   2.000       .  S
O21          C26   1.276       .  A
O22         Cu24   2.001       .  S
O22          C25   1.276       .  A
Cu23        Cu24   2.370       .  S
C25         C205   1.484       .  S
C26         C196   1.466       .  S
C27         C160   1.485       .  S
C28         C172   1.492       .  S
O29         Cu37   2.012       .  S
O29         C495   1.278       .  A
O30         Cu37   2.014       .  S
O30          C40   1.279       .  A
O31         Cu37   2.000       .  S
O31         C497   1.277       .  A
O32         Cu37   2.000       .  S
O32         C498   1.277       .  A
O33         Cu38   1.995       .  S
O33          C42   1.276   1_455  A
O34         Cu38   1.997       .  S
O34          C41   1.276   1_455  A
O35         Cu38   2.003   1_655  S
O35         C496   1.277       .  A
O36         Cu38   2.004       .  S
O36          C39   1.278       .  A
Cu37       Cu494   2.371       .  S
Cu38       Cu493   2.371   1_455  S
C39         O485   1.279   1_455  A
C39         C124   1.490       .  S
C40         O491   1.278       .  A
C40         C184   1.485       .  S
C41         O487   1.277       .  A
C41         C133   1.472       .  S
C42         O488   1.277       .  A
C42         C145   1.475       .  S
O43         Cu51   2.008       .  S
O43          C53   1.278       .  A
O44         Cu51   1.999   1_655  S
O44         C510   1.276       .  A
O45         Cu51   2.000       .  S
O45          C55   1.277   1_455  A
O46         Cu51   2.000       .  S
O46          C56   1.278   1_455  A
O47         Cu52   2.002       .  S
O47         C512   1.276       .  A
O48         Cu52   1.997       .  S
O48         C511   1.275       .  A
O49         Cu52   2.014       .  S
O49          C54   1.279       .  A
O50         Cu52   2.007       .  S
O50         C509   1.277       .  A
Cu51       Cu508   2.368   1_455  S
Cu52       Cu507   2.370       .  S
C53         O506   1.279   1_455  A
C53         C157   1.490       .  S
C54         O500   1.277       .  A
C54         C112   1.486       .  S
C55         O504   1.277       .  A
C55         C148   1.471       .  S
C56         O503   1.276       .  A
C56         C136   1.488       .  S
O57         Cu65   2.001       .  S
O57         C295   1.276       .  A
O58         Cu65   2.010   1_554  S
O58          C68   1.278       .  A
O59         Cu65   2.017       .  S
O59         C297   1.278       .  A
O60         Cu65   2.011       .  S
O60         C298   1.277       .  A
O61         Cu66   2.003       .  S
O61          C70   1.276   1_545  A
O62         Cu66   2.002       .  S
O62          C69   1.276   1_544  A
O63         Cu66   2.006   1_565  S
O63         C296   1.279       .  A
O64         Cu66   2.016   1_556  S
O64          C67   1.280       .  A
Cu65       Cu294   2.374   1_556  S
Cu66       Cu293   2.370   1_544  S
C67         O285   1.276       .  A
C67         C109   1.489       .  S
C68         O291   1.277       .  A
C68         C217   1.474       .  S
C69         O287   1.278       .  A
C69          C97   1.474   1_565  S
C70         O288   1.278   1_554  A
C70          C85   1.469       .  S
O71         Cu79   2.007       .  S
O71         C309   1.277       .  A
O72         Cu79   2.001       .  S
O72         C310   1.277       .  A
O73         Cu79   2.024   1_556  S
O73          C83   1.280       .  A
O74         Cu79   2.014       .  S
O74         C312   1.279       .  A
O75         Cu80   2.016   1_554  S
O75          C84   1.277       .  A
O76         Cu80   2.003   1_565  S
O76         C311   1.277       .  A
O77         Cu80   2.005       .  S
O77          C82   1.277       .  A
O78         Cu80   2.012       .  S
O78          C81   1.277       .  A
Cu79       Cu308   2.373   1_554  S
Cu80       Cu307   2.371   1_546  S
C81         O299   1.276   1_546  A
C81         C100   1.469       .  S
C82         O300   1.276   1_546  A
C82          C88   1.468       .  S
C83         O304   1.276       .  A
C83         C121   1.488       .  S
C84         O302   1.279       .  A
C84         C169   1.493       .  S
C85          C90   1.412   1_564  A
C85         C314   1.402       .  A
C86         C313   1.402   1_554  A
C86         C543   1.399       .  A
C86          H95   1.084       .  S
C87         C542   1.398   1_455  A
C87         C316   1.414       .  A
C87          S91   1.804       .  S
C88          C89   1.402       .  A
C88         C315   1.412   1_556  A
C89         C546   1.399   1_445  A
C89          H96   1.084       .  S
C90         C545   1.399       .  A
C90          S92   1.804       .  S
S91          H94   1.405       .  S
S92          H93   1.405       .  S
C97          C98   1.404   1_556  A
C97         C330   1.413   1_545  A
C98          C99   1.399       .  A
C98         H107   1.084       .  S
C99         C100   1.411   1_554  A
C99         S103   1.804       .  S
C100        C329   1.401   1_545  A
C101        C102   1.400       .  A
C101        C328   1.402   1_556  A
C101        H108   1.084       .  S
C102        C325   1.412       .  A
C102        S104   1.802       .  S
S103        H106   1.406       .  S
S104        H105   1.406       .  S
C109        C110   1.406       .  A
C109        C114   1.418       .  A
C110        C111   1.399       .  A
C110        H119   1.084       .  S
C111        C112   1.414       .  A
C111        S115   1.803       .  S
C112        C113   1.405       .  A
C113        C114   1.404       .  A
C113        H120   1.082       .  S
C114        S344   1.809   1_545  S
S115        H118   1.408       .  S
S116        C342   1.809       .  S
S116        H117   1.406       .  S
C121        C122   1.407       .  A
C121        C126   1.416       .  A
C122        C123   1.403       .  A
C122        H131   1.084       .  S
C123        C124   1.416       .  A
C123        S583   1.802       .  S
C124        C125   1.407       .  A
C125        C126   1.399       .  A
C125        H132   1.084       .  S
C126        S128   1.804       .  S
S127        C579   1.802       .  S
S127        H130   1.408       .  S
S128        H129   1.408       .  S
C133        C134   1.401       .  A
C133        C594   1.409   1_655  A
C134        C135   1.405       .  A
C134        H143   1.083       .  S
C135        C136   1.420       .  A
C135        S139   1.809       .  S
C136        C593   1.407   1_655  A
C137        C138   1.397       .  A
C137        C592   1.408       .  A
C137        H144   1.084       .  S
C138        C589   1.410       .  A
C138        S140   1.804       .  S
S139        H142   1.407       .  S
S140        H141   1.407       .  S
C145        C150   1.413   1_655  A
C145        C602   1.403       .  A
C146        C601   1.404       .  A
C146        C375   1.402       .  A
C146        H155   1.083       .  S
C147        C374   1.401   1_545  A
C147        C604   1.406       .  A
C147        S151   1.807       .  S
C148        C149   1.404   1_655  A
C148        C603   1.412       .  A
C149        C378   1.397   1_545  A
C149        H156   1.084       .  S
C150        C377   1.395       .  A
C150        S152   1.804       .  S
S151        H154   1.407       .  S
S152        H153   1.408       .  S
C157        C158   1.408       .  A
C157        C162   1.417       .  A
C158        C159   1.400       .  A
C158        H167   1.083       .  S
C159        C160   1.413       .  A
C159        S163   1.803       .  S
C160        C161   1.405       .  A
C161        C162   1.402       .  A
C161        H168   1.084       .  S
C162        S164   1.802   1_455  S
S163        H166   1.408       .  S
S164        H621   1.408       .  S
H165        S620   1.408       .  S
C169        C170   1.406       .  A
C169        C174   1.419       .  A
C170        C171   1.401       .  A
C170        H179   1.084       .  S
C171        C172   1.417       .  A
C171        S175   1.800       .  S
C172        C173   1.406       .  A
C173        C174   1.402       .  A
C173        H180   1.084       .  S
C174        S176   1.800       .  S
S175        H178   1.408       .  S
S176        H177   1.408       .  S
C181        C182   1.407       .  A
C181        C186   1.418       .  A
C182        C183   1.399       .  A
C182        H191   1.083       .  S
C183        C184   1.413       .  A
C183        S187   1.804       .  S
C184        C185   1.405       .  A
C185        C186   1.405       .  A
C185        H192   1.082       .  S
C186        S188   1.809       .  S
S187        H190   1.408       .  S
S188        H189   1.407       .  S
C193        C194   1.402       .  A
C193        C198   1.414       .  A
C194        C879   1.397       .  A
C194        H203   1.084       .  S
C195        C196   1.411       .  A
C195        C878   1.398   1_445  A
C195        S199   1.804       .  S
C196        C197   1.401       .  A
C197        C882   1.399   1_445  A
C197        H204   1.084       .  S
C198        C881   1.399       .  A
C198        S200   1.804       .  S
S199        H202   1.405       .  S
S200        H201   1.406       .  S
C205        C206   1.405       .  A
C205        C210   1.417       .  A
C206        C207   1.398       .  A
C206        H215   1.084       .  S
C207        C208   1.413       .  A
C207        S211   1.802       .  S
C208        C209   1.403       .  A
C209        C210   1.402       .  A
C209        H216   1.083       .  S
C210        S212   1.810       .  S
S211        H214   1.407       .  S
S212        H213   1.407       .  S
C217        C218   1.402       .  A
C217        C222   1.409       .  A
C218        C219   1.405       .  A
C218        H227   1.084       .  S
C219        C220   1.422       .  A
C219        S223   1.801       .  S
C220        C221   1.408       .  A
C221        C222   1.394       .  A
C221        H228   1.083       .  S
C222        S224   1.801       .  S
S223        H226   1.406       .  S
S224        H225   1.406       .  S
O229       Cu237   2.002       .  S
O229        C239   1.276       .  A
O230       Cu237   2.000       .  S
O230        C240   1.278       .  A
O231       Cu237   2.009       .  S
O231        C241   1.279       .  A
O232       Cu237   2.016       .  S
O232        C242   1.279       .  A
O233       Cu238   2.004       .  S
O233        C242   1.277       .  A
O234       Cu238   2.006       .  S
O234        C241   1.276       .  A
O235       Cu238   2.013       .  S
O235        C240   1.278       .  A
O236       Cu238   2.006       .  S
O236        C239   1.278       .  A
Cu237      Cu238   2.369       .  S
C239        C421   1.472       .  S
C240        C436   1.483       .  S
C241        C448   1.485       .  S
C242        C409   1.489       .  S
O243       Cu251   2.010       .  S
O243        C253   1.278       .  A
O244       Cu251   2.010       .  S
O244        C254   1.278       .  A
O245       Cu251   2.010       .  S
O245        C255   1.278       .  A
O246       Cu251   2.009       .  S
O246        C256   1.279       .  A
O247       Cu252   2.016       .  S
O247        C256   1.277       .  A
O248       Cu252   2.007       .  S
O248        C255   1.278       .  A
O249       Cu252   1.998       .  S
O249        C254   1.276       .  A
O250       Cu252   2.005       .  S
O250        C253   1.277       .  A
Cu251      Cu252   2.367       .  S
C253        C433   1.485       .  S
C254        C424   1.471       .  S
C255        C388   1.486       .  S
C256        C400   1.496       .  S
O257       Cu265   2.009       .  S
O257        C723   1.278       .  A
O258       Cu265   2.007       .  S
O258        C268   1.278       .  A
O259       Cu265   2.001       .  S
O259        C725   1.277       .  A
O260       Cu265   1.998       .  S
O260        C726   1.276       .  A
O261       Cu266   2.000       .  S
O261        C270   1.276   1_455  A
O262       Cu266   2.000       .  S
O262        C269   1.277   1_455  A
O263       Cu266   2.001   1_655  S
O263        C724   1.277       .  A
O264       Cu266   2.010       .  S
O264        C267   1.278       .  A
Cu265      Cu722   2.373       .  S
Cu266      Cu721   2.373   1_455  S
C267        O713   1.279       .  A
C267        C352   1.488       .  S
C268        O719   1.279       .  A
C268        C412   1.485       .  S
C269        O715   1.277       .  A
C269        C361   1.476       .  S
C270        O716   1.276       .  A
C270        C373   1.463   1_655  S
O271       Cu279   2.004       .  S
O271        C281   1.278       .  A
O272       Cu279   2.000   1_655  S
O272        C738   1.276       .  A
O273       Cu279   1.999       .  S
O273        C283   1.277   1_455  A
O274       Cu279   2.002       .  S
O274        C284   1.278   1_455  A
O275       Cu280   2.003       .  S
O275        C740   1.276       .  A
O276       Cu280   1.998       .  S
O276        C739   1.276       .  A
O277       Cu280   2.012       .  S
O277        C282   1.279       .  A
O278       Cu280   2.014       .  S
O278        C737   1.278       .  A
Cu279      Cu736   2.369   1_455  S
Cu280      Cu735   2.367       .  S
C281        O734   1.279   1_455  A
C281        C385   1.487       .  S
C282        O728   1.277       .  A
C282        C340   1.486       .  S
C283        O732   1.276       .  A
C283        C376   1.477       .  S
C284        O731   1.276       .  A
C284        C364   1.483       .  S
O285       Cu293   2.002   1_545  S
O286       Cu293   2.012   1_554  S
O286        C296   1.277       .  A
O287       Cu293   2.015       .  S
O288       Cu293   2.012       .  S
O289       Cu294   2.004       .  S
O289        C298   1.276   1_554  A
O290       Cu294   2.005       .  S
O290        C297   1.277   1_554  A
O291       Cu294   2.010       .  S
O292       Cu294   2.022   1_556  S
O292        C295   1.280       .  A
C295        C337   1.490       .  S
C296        C445   1.491       .  S
C297        C325   1.474       .  S
C298        C313   1.468       .  S
O299       Cu307   2.005       .  S
O300       Cu307   2.002       .  S
O301       Cu307   2.023   1_556  S
O301        C311   1.280       .  A
O302       Cu307   2.013   1_545  S
O303       Cu308   2.008   1_554  S
O303        C312   1.277       .  A
O304       Cu308   1.999       .  S
O305       Cu308   2.006       .  S
O305        C310   1.277   1_556  A
O306       Cu308   2.015       .  S
O306        C309   1.278   1_556  A
C309        C328   1.474       .  S
C310        C316   1.470       .  S
C311        C349   1.490       .  S
C312        C397   1.479       .  S
C313        C318   1.411       .  A
C314        C771   1.399       .  A
C314        H323   1.084       .  S
C315        C770   1.398   1_455  A
C315        S319   1.805       .  S
C316        C317   1.403   1_554  A
C317        C774   1.398   1_455  A
C317        H324   1.084       .  S
C318        C773   1.399       .  A
C318        S320   1.804       .  S
S319        H322   1.406       .  S
S320        H321   1.405       .  S
C325        C326   1.403   1_556  A
C326        C327   1.401       .  A
C326        H335   1.084       .  S
C327        C328   1.413       .  A
C327        S331   1.804       .  S
C329        C330   1.400       .  A
C329        H336   1.084       .  S
C330        S332   1.802       .  S
S331        H334   1.406       .  S
S332        H333   1.406   1_565  S
C337        C338   1.407       .  A
C337        C342   1.418       .  A
C338        C339   1.401       .  A
C338        H347   1.084       .  S
C339        C340   1.414       .  A
C339        S343   1.803       .  S
C340        C341   1.405       .  A
C341        C342   1.403       .  A
C341        H348   1.082       .  S
S343        H346   1.408       .  S
S344        H345   1.407       .  S
C349        C350   1.407       .  A
C349        C354   1.417       .  A
C350        C351   1.402       .  A
C350        H359   1.083       .  S
C351        C352   1.415       .  A
C351        S811   1.802       .  S
C352        C353   1.405       .  A
C353        C354   1.400       .  A
C353        H360   1.084       .  S
C354        S356   1.803       .  S
S355        C807   1.802       .  S
S355        H358   1.408       .  S
S356        H357   1.408       .  S
C361        C362   1.403       .  A
C361        C822   1.412   1_655  A
C362        C363   1.404       .  A
C362        H371   1.083       .  S
C363        C364   1.417       .  A
C363        S367   1.809       .  S
C364        C821   1.405   1_655  A
C365        C820   1.408       .  A
C365        C366   1.396       .  A
C365        H372   1.083       .  S
C366        C817   1.408       .  A
C366        S368   1.804       .  S
S367        H370   1.407       .  S
S368        H369   1.407       .  S
C373        C830   1.401   1_455  A
C373        C378   1.409       .  A
C374        C829   1.404       .  A
C374        H383   1.083       .  S
C375        C832   1.414       .  A
C375        S379   1.810       .  S
C376        C831   1.415       .  A
C376        C377   1.403   1_655  A
C377        H384   1.084       .  S
C378        S380   1.805       .  S
S379        H382   1.407       .  S
S380        H381   1.405       .  S
C385        C386   1.406       .  A
C385        C390   1.415       .  A
C386        C387   1.399       .  A
C386        H395   1.084       .  S
C387        C388   1.415       .  A
C387        S391   1.803       .  S
C388        C389   1.407       .  A
C389        C390   1.401       .  A
C389        H396   1.084       .  S
C390        S392   1.802       .  S
S391        H394   1.408       .  S
S392        H849   1.408       .  S
H393        S848   1.408       .  S
C397        C398   1.401       .  A
C397        C402   1.412       .  A
C398        C399   1.403       .  A
C398        H407   1.084       .  S
C399        C400   1.422       .  A
C399        S403   1.801       .  S
C400        C401   1.408       .  A
C401        C402   1.398       .  A
C401        H408   1.083       .  S
C402        S404   1.801       .  S
S403        H406   1.408       .  S
S404        H405   1.407       .  S
C409        C410   1.407       .  A
C409        C414   1.417       .  A
C410        C411   1.400       .  A
C410        H419   1.083       .  S
C411        C412   1.413       .  A
C411        S415   1.803       .  S
C412        C413   1.405       .  A
C413        C414   1.403       .  A
C413        H420   1.082       .  S
C414        S416   1.809       .  S
S415        H418   1.408       .  S
S416        H417   1.407       .  S
C421        C422   1.403       .  A
C421        C426   1.415       .  A
C422        C651   1.397   1_565  A
C422        H431   1.084       .  S
C423        C650   1.398   1_455  A
C423        C424   1.415       .  A
C423        S427   1.803       .  S
C424        C425   1.402       .  A
C425        C654   1.398   1_455  A
C425        H432   1.084       .  S
C426        C653   1.399   1_565  A
C426        S428   1.804       .  S
S427        H430   1.405       .  S
S428        H429   1.407       .  S
C433        C434   1.406       .  A
C433        C438   1.415       .  A
C434        C435   1.404       .  A
C434        H443   1.082       .  S
C435        C436   1.414       .  A
C435        S439   1.809       .  S
C436        C437   1.404       .  A
C437        C438   1.401       .  A
C437        H444   1.082       .  S
C438        S440   1.810       .  S
S439        H442   1.407       .  S
S440        H441   1.406       .  S
C445        C446   1.407       .  A
C445        C450   1.419       .  A
C446        C447   1.399       .  A
C446        H455   1.084       .  S
C447        C448   1.416       .  A
C447        S451   1.801       .  S
C448        C449   1.404       .  A
C449        C450   1.400       .  A
C449        H456   1.084       .  S
C450        S452   1.800       .  S
S451        H454   1.407       .  S
S452        H453   1.408       .  S
O457       Cu465   2.000       .  S
O457        C467   1.276       .  A
O458       Cu465   2.001       .  S
O458        C468   1.277       .  A
O459       Cu465   2.007       .  S
O459        C469   1.279       .  A
O460       Cu465   2.013       .  S
O460        C470   1.280       .  A
O461       Cu466   2.007       .  S
O461        C470   1.277       .  A
O462       Cu466   2.010       .  S
O462        C469   1.277       .  A
O463       Cu466   2.013       .  S
O463        C468   1.278       .  A
O464       Cu466   2.011       .  S
O464        C467   1.277       .  A
Cu465      Cu466   2.368       .  S
C467        C649   1.466       .  S
C468        C664   1.483       .  S
C469        C676   1.493       .  S
C470        C637   1.491       .  S
O471       Cu479   2.005       .  S
O471        C481   1.278       .  A
O472       Cu479   2.000       .  S
O472        C482   1.276       .  A
O473       Cu479   2.017       .  S
O473        C483   1.279       .  A
O474       Cu479   2.014       .  S
O474        C484   1.279       .  A
O475       Cu480   2.013       .  S
O475        C484   1.277       .  A
O476       Cu480   2.006       .  S
O476        C483   1.278       .  A
O477       Cu480   2.007       .  S
O477        C482   1.277       .  A
O478       Cu480   2.012       .  S
O478        C481   1.278       .  A
Cu479      Cu480   2.370       .  S
C481        C661   1.485       .  S
C482        C652   1.465       .  S
C483        C616   1.484       .  S
C484        C628   1.489       .  S
O485       Cu493   2.021       .  S
O486       Cu493   2.015       .  S
O486        C496   1.279       .  A
O487       Cu493   2.008       .  S
O488       Cu493   2.001       .  S
O489       Cu494   1.999       .  S
O489        C498   1.277       .  A
O490       Cu494   2.003       .  S
O490        C497   1.277       .  A
O491       Cu494   2.008       .  S
O492       Cu494   2.005       .  S
O492        C495   1.278       .  A
C495        C580   1.485       .  S
C496        C640   1.483       .  S
C497        C589   1.472       .  S
C498        C601   1.476       .  S
O499       Cu507   2.013       .  S
O499        C509   1.279       .  A
O500       Cu507   2.007       .  S
O501       Cu507   2.000       .  S
O501        C511   1.276       .  A
O502       Cu507   2.004       .  S
O502        C512   1.278       .  A
O503       Cu508   2.008       .  S
O504       Cu508   2.002       .  S
O505       Cu508   2.017       .  S
O505        C510   1.280       .  A
O506       Cu508   2.016       .  S
C509        C613   1.490       .  S
C510        C568   1.486       .  S
C511        C604   1.461       .  S
C512        C592   1.486       .  S
O513       Cu521   1.999       .  S
O513        C751   1.276       .  A
O514       Cu521   2.012   1_554  S
O514        C524   1.277       .  A
O515       Cu521   2.017       .  S
O515        C753   1.278       .  A
O516       Cu521   2.011       .  S
O516        C754   1.278       .  A
O517       Cu522   1.996       .  S
O517        C526   1.275   1_544  A
O518       Cu522   1.998       .  S
O518        C525   1.275   1_544  A
O519       Cu522   2.008   1_565  S
O519        C752   1.279       .  A
O520       Cu522   2.016   1_556  S
O520        C523   1.280       .  A
Cu521      Cu750   2.373   1_556  S
Cu522      Cu749   2.372   1_544  S
C523        O741   1.276   1_545  A
C523        C565   1.486       .  S
C524        O747   1.278       .  A
C524        C673   1.484       .  S
C525        O743   1.279       .  A
C525        C553   1.471       .  S
C526        O744   1.278       .  A
C526        C541   1.469       .  S
O527       Cu535   2.003       .  S
O527        C765   1.276       .  A
O528       Cu535   2.004       .  S
O528        C766   1.277       .  A
O529       Cu535   2.018   1_556  S
O529        C539   1.280       .  A
O530       Cu535   2.012       .  S
O530        C768   1.279       .  A
O531       Cu536   2.012   1_554  S
O531        C540   1.277       .  A
O532       Cu536   1.999   1_565  S
O532        C767   1.276       .  A
O533       Cu536   2.009       .  S
O533        C538   1.278   1_556  A
O534       Cu536   2.014       .  S
O534        C537   1.278   1_546  A
Cu535      Cu764   2.372   1_554  S
Cu536      Cu763   2.370   1_546  S
C537        O755   1.277       .  A
C537        C556   1.475       .  S
C538        O756   1.277   1_545  A
C538        C544   1.471       .  S
C539        O760   1.276       .  A
C539        C577   1.485       .  S
C540        O758   1.280       .  A
C540        C625   1.496       .  S
C541        C770   1.403   1_566  A
C541        C546   1.412       .  A
C542        C769   1.401   1_554  A
C542        H551   1.084       .  S
C543        C772   1.413       .  A
C543        S547   1.804       .  S
C544        C771   1.413   1_545  A
C544        C545   1.403   1_554  A
C545        H552   1.084       .  S
C546        S548   1.804   1_565  S
S547        H550   1.407       .  S
S548        H549   1.406       .  S
C553        C554   1.402   1_556  A
C553        C786   1.412   1_565  A
C554        C555   1.399       .  A
C554        H563   1.084       .  S
C555        C556   1.413       .  A
C555        S559   1.803       .  S
C556        C785   1.404   1_564  A
C557        C784   1.402       .  A
C557        C558   1.400       .  A
C557        H564   1.084       .  S
C558        C781   1.412       .  A
C558        S560   1.802       .  S
S559        H562   1.407   1_565  S
S560        H561   1.405       .  S
C565        C566   1.405       .  A
C565        C570   1.416       .  A
C566        C567   1.398       .  A
C566        H575   1.084       .  S
C567        C568   1.415       .  A
C567        S571   1.803       .  S
C568        C569   1.405       .  A
C569        C570   1.404       .  A
C569        H576   1.082       .  S
C570        S800   1.808   1_545  S
S571        H574   1.408       .  S
S572        C798   1.808       .  S
S572        H573   1.407       .  S
C577        C578   1.406       .  A
C577        C582   1.416       .  A
C578        C579   1.400       .  A
C578        H587   1.084       .  S
C579        C580   1.415       .  A
C580        C581   1.405       .  A
C581        C582   1.399       .  A
C581        H588   1.084       .  S
C582        S584   1.803       .  S
S583        H586   1.408       .  S
S584        H585   1.408       .  S
C589        C590   1.400       .  A
C590        C591   1.401       .  A
C590        H599   1.083       .  S
C591        C592   1.419       .  A
C591        S595   1.810       .  S
C593        C594   1.395       .  A
C593        H600   1.083       .  S
C594        S596   1.804       .  S
S595        H598   1.406       .  S
S596        H597   1.407       .  S
C601        C606   1.414       .  A
C602        C831   1.401       .  A
C602        H611   1.083       .  S
C603        C830   1.402   1_545  A
C603        S607   1.808       .  S
C604        C605   1.399       .  A
C605        C834   1.396   1_545  A
C605        H612   1.084       .  S
C606        C833   1.395       .  A
C606        S608   1.803       .  S
S607        H610   1.407   1_545  S
S608        H609   1.408       .  S
C613        C614   1.407       .  A
C613        C618   1.418       .  A
C614        C615   1.400       .  A
C614        H623   1.083       .  S
C615        C616   1.413       .  A
C615        S619   1.803       .  S
C616        C617   1.404       .  A
C617        C618   1.400       .  A
C617        H624   1.084       .  S
C618        S620   1.803       .  S
S619        H622   1.408       .  S
C625        C626   1.407       .  A
C625        C630   1.421       .  A
C626        C627   1.401       .  A
C626        H635   1.084       .  S
C627        C628   1.416       .  A
C627        S631   1.800       .  S
C628        C629   1.403       .  A
C629        C630   1.401       .  A
C629        H636   1.084       .  S
C630        S632   1.800       .  S
S631        H634   1.407       .  S
S632        H633   1.408       .  S
C637        C638   1.407       .  A
C637        C642   1.419       .  A
C638        C639   1.398       .  A
C638        H647   1.083       .  S
C639        C640   1.412       .  A
C639        S643   1.803       .  S
C640        C641   1.404       .  A
C641        C642   1.405       .  A
C641        H648   1.082       .  S
C642        S644   1.810       .  S
S643        H646   1.408       .  S
S644        H645   1.407       .  S
C649        C650   1.400       .  A
C649        C654   1.411       .  A
C650        H659   1.084       .  S
C651        C652   1.409       .  A
C651        S655   1.802       .  S
C652        C653   1.401       .  A
C653        H660   1.084       .  S
C654        S656   1.803       .  S
S655        H658   1.404       .  S
S656        H657   1.405       .  S
C661        C662   1.406       .  A
C661        C666   1.414       .  A
C662        C663   1.403       .  A
C662        H671   1.082       .  S
C663        C664   1.413       .  A
C663        S667   1.809       .  S
C664        C665   1.405       .  A
C665        C666   1.402       .  A
C665        H672   1.082       .  S
C666        S668   1.809       .  S
S667        H670   1.407       .  S
S668        H669   1.407       .  S
C673        C674   1.403       .  A
C673        C678   1.413       .  A
C674        C675   1.405       .  A
C674        H683   1.083       .  S
C675        C676   1.421       .  A
C675        S679   1.810       .  S
C676        C677   1.407       .  A
C677        C678   1.397       .  A
C677        H684   1.084       .  S
C678        S680   1.800       .  S
S679        H682   1.406       .  S
S680        H681   1.407       .  S
O685       Cu693   2.008       .  S
O685        C695   1.277       .  A
O686       Cu693   2.007       .  S
O686        C696   1.278       .  A
O687       Cu693   2.012       .  S
O687        C697   1.280       .  A
O688       Cu693   2.014       .  S
O688        C698   1.279       .  A
O689       Cu694   2.005       .  S
O689        C698   1.277       .  A
O690       Cu694   2.009       .  S
O690        C697   1.276       .  A
O691       Cu694   2.009       .  S
O691        C696   1.278       .  A
O692       Cu694   2.005       .  S
O692        C695   1.277       .  A
Cu693      Cu694   2.368       .  S
C695        C877   1.473       .  S
C696        C892   1.480       .  S
C697        C904   1.492       .  S
C698        C865   1.489       .  S
O699       Cu707   2.004       .  S
O699        C709   1.278       .  A
O700       Cu707   2.001       .  S
O700        C710   1.276       .  A
O701       Cu707   2.015       .  S
O701        C711   1.279       .  A
O702       Cu707   2.008       .  S
O702        C712   1.279       .  A
O703       Cu708   2.017       .  S
O703        C712   1.277       .  A
O704       Cu708   2.007       .  S
O704        C711   1.278       .  A
O705       Cu708   2.007       .  S
O705        C710   1.277       .  A
O706       Cu708   2.015       .  S
O706        C709   1.278       .  A
Cu707      Cu708   2.368       .  S
C709        C889   1.490       .  S
C710        C880   1.466       .  S
C711        C844   1.485       .  S
C712        C856   1.493       .  S
O713       Cu721   2.017   1_455  S
O714       Cu721   2.019       .  S
O714        C724   1.280       .  A
O715       Cu721   2.006       .  S
O716       Cu721   2.003       .  S
O717       Cu722   2.000       .  S
O717        C726   1.277       .  A
O718       Cu722   2.001       .  S
O718        C725   1.277       .  A
O719       Cu722   2.013       .  S
O720       Cu722   2.014       .  S
O720        C723   1.279       .  A
C723        C808   1.487       .  S
C724        C868   1.485       .  S
C725        C817   1.469       .  S
C726        C829   1.469       .  S
O727       Cu735   2.011       .  S
O727        C737   1.279       .  A
O728       Cu735   2.008       .  S
O729       Cu735   2.000       .  S
O729        C739   1.277       .  A
O730       Cu735   2.002       .  S
O730        C740   1.278       .  A
O731       Cu736   2.004       .  S
O732       Cu736   1.998       .  S
O733       Cu736   2.014       .  S
O733        C738   1.279       .  A
O734       Cu736   2.017       .  S
C737        C841   1.489       .  S
C738        C796   1.484       .  S
C739        C832   1.475       .  S
C740        C820   1.488       .  S
O741       Cu749   2.001       .  S
O742       Cu749   2.013   1_554  S
O742        C752   1.277       .  A
O743       Cu749   2.022       .  S
O744       Cu749   2.016       .  S
O745       Cu750   1.997       .  S
O745        C754   1.275   1_554  A
O746       Cu750   1.998       .  S
O746        C753   1.276   1_554  A
O747       Cu750   2.007       .  S
O748       Cu750   2.017   1_556  S
O748        C751   1.280       .  A
C751        C793   1.486       .  S
C752        C901   1.488       .  S
C753        C781   1.470       .  S
C754        C769   1.466       .  S
O755       Cu763   2.006       .  S
O756       Cu763   2.004       .  S
O757       Cu763   2.022   1_556  S
O757        C767   1.280       .  A
O758       Cu763   2.017   1_545  S
O759       Cu764   2.011   1_554  S
O759        C768   1.277       .  A
O760       Cu764   1.998       .  S
O761       Cu764   2.006       .  S
O761        C766   1.277   1_556  A
O762       Cu764   2.010       .  S
O762        C765   1.278   1_556  A
C765        C784   1.471   1_554  S
C766        C772   1.471       .  S
C767        C805   1.487       .  S
C768        C853   1.489       .  S
C769        C774   1.410       .  A
C770        H779   1.084   1_545  S
C771        S775   1.804       .  S
C772        C773   1.403   1_554  A
C773        H780   1.084       .  S
C774        S776   1.803       .  S
S775        H778   1.406   1_565  S
S776        H777   1.406       .  S
C781        C782   1.401   1_556  A
C782        C783   1.398       .  A
C782        H791   1.084       .  S
C783        C784   1.412   1_554  A
C783        S787   1.804       .  S
C785        C786   1.401       .  A
C785        H792   1.084       .  S
C786        S788   1.802       .  S
S787        H790   1.407       .  S
S788        H789   1.405       .  S
C793        C794   1.406       .  A
C793        C798   1.417       .  A
C794        C795   1.399       .  A
C794        H803   1.084       .  S
C795        C796   1.415       .  A
C795        S799   1.803       .  S
C796        C797   1.404       .  A
C797        C798   1.403       .  A
C797        H804   1.083       .  S
S799        H802   1.408       .  S
S800        H801   1.407   1_565  S
C805        C806   1.405       .  A
C805        C810   1.417       .  A
C806        C807   1.400       .  A
C806        H815   1.084       .  S
C807        C808   1.416       .  A
C808        C809   1.406       .  A
C809        C810   1.401       .  A
C809        H816   1.084       .  S
C810        S812   1.804       .  S
S811        H814   1.408       .  S
S812        H813   1.408       .  S
C817        C818   1.400       .  A
C818        C819   1.403       .  A
C818        H827   1.083       .  S
C819        C820   1.421       .  A
C819        S823   1.810       .  S
C821        C822   1.395       .  A
C821        H828   1.084       .  S
C822        S824   1.804       .  S
S823        H826   1.407       .  S
S824        H825   1.408       .  S
C829        C834   1.414       .  A
C830        H839   1.083       .  S
C831        S835   1.810       .  S
C832        C833   1.402       .  A
C833        H840   1.084       .  S
C834        S836   1.804       .  S
S835        H838   1.407       .  S
S836        H837   1.407       .  S
C841        C842   1.407       .  A
C841        C846   1.417       .  A
C842        C843   1.400       .  A
C842        H851   1.084       .  S
C843        C844   1.414       .  A
C843        S847   1.803       .  S
C844        C845   1.406       .  A
C845        C846   1.402       .  A
C845        H852   1.084       .  S
C846        S848   1.802       .  S
S847        H850   1.408       .  S
C853        C854   1.405       .  A
C853        C858   1.416       .  A
C854        C855   1.403       .  A
C854        H863   1.084       .  S
C855        C856   1.419       .  A
C855        S859   1.800       .  S
C856        C857   1.406       .  A
C857        C858   1.399       .  A
C857        H864   1.084       .  S
C858        S860   1.800       .  S
S859        H862   1.408       .  S
S860        H861   1.407       .  S
C865        C866   1.405       .  A
C865        C870   1.417       .  A
C866        C867   1.399       .  A
C866        H875   1.084       .  S
C867        C868   1.414       .  A
C867        S871   1.803       .  S
C868        C869   1.405       .  A
C869        C870   1.405       .  A
C869        H876   1.082       .  S
C870        S872   1.809       .  S
S871        H874   1.408       .  S
S872        H873   1.406       .  S
C877        C878   1.403       .  A
C877        C882   1.414       .  A
C878        H887   1.084       .  S
C879        C880   1.410       .  A
C879        S883   1.803       .  S
C880        C881   1.401       .  A
C881        H888   1.084       .  S
C882        S884   1.803       .  S
S883        H886   1.405       .  S
S884        H885   1.407       .  S
C889        C890   1.408       .  A
C889        C894   1.418       .  A
C890        C891   1.402       .  A
C890        H899   1.082       .  S
C891        C892   1.410       .  A
C891        S895   1.808       .  S
C892        C893   1.404       .  A
C893        C894   1.404       .  A
C893        H900   1.083       .  S
C894        S896   1.809       .  S
S895        H898   1.407       .  S
S896        H897   1.407       .  S
C901        C902   1.404       .  A
C901        C906   1.416       .  A
C902        C903   1.401       .  A
C902        H911   1.084       .  S
C903        C904   1.420       .  A
C903        S907   1.801       .  S
C904        C905   1.406       .  A
C905        C906   1.400       .  A
C905        H912   1.084       .  S
C906        S908   1.800       .  S
S907        H910   1.408       .  S
S908        H909   1.407       .  S
