geometry optimzed in LAMMPS
_audit_creation_date              2020-12-01 
_audit_creation_method            'lammps2cif' 
_symmetry_space_group_name_H-M    'P1' 
_symmetry_Int_Tables_number       1 
_symmetry_cell_setting            triclinic 
loop_ 
_symmetry_equiv_pos_as_xyz 
  x,y,z 
_cell_length_a                    29.14375059 
_cell_length_b                    29.12007090289572 
_cell_length_c                    83.45574003725397 
_cell_angle_alpha                 89.7516017429708 
_cell_angle_beta                  90.17991505488658 
_cell_angle_gamma                 120.01258876200323 
loop_ 
_atom_site_label 
_atom_site_type_symbol 
_atom_site_fract_x 
_atom_site_fract_y 
_atom_site_fract_z 
_atom_site_charge 
O1          O  0.74538991  0.50832473  0.06074693    -0.72500
O2          O  0.74659924  0.45798492  0.10520837    -0.73500
O3          O  0.67779313  0.48486960  0.08776420    -0.62100
O4          O  0.81544125  0.48581139  0.07860405    -0.70500
O5          O  0.85975694  0.56897424  0.08724294    -0.70100
O6          O  0.72605158  0.56959216  0.09456498    -0.61400
O7          O  0.78964992  0.54084011  0.11402351    -0.73900
O8          O  0.79530840  0.59266332  0.06771802    -0.72600
Cu9        Cu  0.74456807  0.48131582  0.08283186     1.04600
Cu10       Cu  0.79409422  0.57087913  0.09125314     1.04300
C11         C  0.77079170  0.55733702  0.05694338     0.93700
C12         C  0.76867851  0.49076695  0.11661747     0.92800
C13         C  0.68104701  0.52851418  0.09219650     0.84900
C14         C  0.85927046  0.52837456  0.08148743     0.91200
O15         O  0.71615232  0.56070446  0.91253958    -0.72500
O16         O  0.85162374  0.56247121  0.90801006    -0.73500
O17         O  0.76211633  0.53134966  0.88705586    -0.62100
O18         O  0.80131647  0.58630729  0.93357343    -0.70500
O19         O  0.76235370  0.50227873  0.94146266    -0.70100
O20         O  0.72294077  0.44938017  0.89669881    -0.61400
O21         O  0.81492386  0.47903218  0.91636489    -0.73900
O22         O  0.67540210  0.47770148  0.92152002    -0.71400
Cu23       Cu  0.78440509  0.56303406  0.90989114     1.04600
Cu24       Cu  0.74295096  0.47419157  0.91924134     1.04300
C25         C  0.67521044  0.52060452  0.91822467     0.93700
C26         C  0.85560004  0.52216485  0.91166374     0.92800
C27         C  0.73433938  0.48095491  0.88484495     0.84900
C28         C  0.78476891  0.55146125  0.94483537     0.91200
O29         O  0.33109210  0.52115803  0.09711408    -0.72500
O30         O  0.19557948  0.51846795  0.08991504    -0.73500
O31         O  0.26144318  0.49609314  0.07055922    -0.62100
O32         O  0.26586494  0.54746409  0.11651062    -0.70500
O33         O  0.30832180  0.63022271  0.10744562    -0.70100
O34         O  0.30846795  0.58049252  0.06313119    -0.61400
O35         O  0.23781637  0.60157667  0.08107111    -0.73900
O36         O  0.37755837  0.60551551  0.08960567    -0.72600
Cu37       Cu  0.26210088  0.51795609  0.09388705     1.04600
Cu38       Cu  0.30965219  0.60741249  0.08506557     1.04300
C39         C  0.37547949  0.56243029  0.09417172     0.93700
C40         C  0.19463615  0.55857803  0.08420259     0.92800
C41         C  0.28517096  0.53131936  0.05967065     0.84900
C42         C  0.28656224  0.59747725  0.11894551     0.91200
O43         O  0.33402406  0.51900549  0.91656234    -0.72500
O44         O  0.19980026  0.51966170  0.91220338    -0.73500
O45         O  0.28850515  0.54849378  0.89121140    -0.62100
O46         O  0.25001569  0.49476481  0.93747167    -0.70500
O47         O  0.29074143  0.57917423  0.94497093    -0.70100
O48         O  0.32760862  0.63102404  0.90029132    -0.61400
O49         O  0.23750663  0.60331390  0.92027596    -0.73900
O50         O  0.37632206  0.60262217  0.92484587    -0.72600
Cu51       Cu  0.26634034  0.51765859  0.91396684     1.04600
Cu52       Cu  0.30902458  0.60696872  0.92283881     1.04300
C53         C  0.37574489  0.55927372  0.92176757     0.93700
C54         C  0.19644185  0.56030942  0.91577539     0.92800
C55         C  0.31627783  0.59872459  0.88872762     0.84900
C56         C  0.26822278  0.53005481  0.94848925     0.91200
O57         O  0.61817690  0.34589504  0.77129268    -0.72500
O58         O  0.56662522  0.31034698  0.72644113    -0.73500
O59         O  0.58780807  0.39456481  0.74726836    -0.62100
O60         O  0.59191685  0.25667698  0.75060717    -0.70500
O61         O  0.50826398  0.21694835  0.75872184    -0.70100
O62         O  0.50492442  0.34987493  0.75608139    -0.61400
O63         O  0.48232983  0.26783865  0.73393731    -0.73900
O64         O  0.53612193  0.30309154  0.78072329    -0.72600
Cu65       Cu  0.59407417  0.32799004  0.74865416     1.04600
Cu66       Cu  0.50509473  0.28272105  0.75773279     1.04300
C67         C  0.58628714  0.33236753  0.78307679     0.93700
C68         C  0.51755973  0.28633207  0.72284624     0.92800
C69         C  0.54434149  0.39271524  0.75107384     0.84900
C70         C  0.54918893  0.21465807  0.75484558     0.91200
O71         O  0.54944204  0.31820959  0.60723056    -0.72500
O72         O  0.60152447  0.32032700  0.56304311    -0.73500
O73         O  0.57508727  0.38862665  0.58093104    -0.62100
O74         O  0.57193004  0.24952839  0.58927921    -0.70500
O75         O  0.48908220  0.20672586  0.58028152    -0.70100
O76         O  0.49108042  0.34185129  0.57322199    -0.61400
O77         O  0.51930487  0.27737178  0.55369852    -0.73900
O78         O  0.46525817  0.27065823  0.59981154    -0.72600
Cu79       Cu  0.57738198  0.32087668  0.58535253     1.04600
Cu80       Cu  0.48831303  0.27286435  0.57634639     1.04300
C81         C  0.50035191  0.29354169  0.61078849     0.93700
C82         C  0.56946962  0.29806388  0.55144799     0.92800
C83         C  0.53195311  0.38631806  0.57637517     0.84900
C84         C  0.52914109  0.20625317  0.58615016     0.91200
O85         O  0.54400045  0.86746566  0.76388453    -0.72500
O86         O  0.54471643  0.73364503  0.75762053    -0.73500
O87         O  0.55893861  0.81641526  0.73691314    -0.62100
O88         O  0.52470753  0.77997106  0.78492977    -0.70500
O89         O  0.43923616  0.73842805  0.77869807    -0.70100
O90         O  0.47211816  0.77549195  0.73295617    -0.61400
O91         O  0.45835495  0.69025508  0.75242474    -0.73900
O92         O  0.45756702  0.82789234  0.75909226    -0.72600
Cu93       Cu  0.54614586  0.80108565  0.76116447     1.04600
Cu94       Cu  0.45390057  0.75686225  0.75569924     1.04300
C95         C  0.50204018  0.86996792  0.76177015     0.93700
C96         C  0.50269350  0.69136574  0.75367749     0.92800
C97         C  0.51909154  0.79963226  0.72739811     0.84900
C98         C  0.47581069  0.75098965  0.78900249     0.91200
O99         O  0.53469914  0.86940340  0.58379369    -0.72500
O100        O  0.53695175  0.73592166  0.57740573    -0.73500
O101        O  0.51479568  0.80234212  0.55660281    -0.62100
O102        O  0.55256312  0.80279282  0.60434311    -0.70500
O103        O  0.46621934  0.75583872  0.60905832    -0.70100
O104        O  0.42975877  0.75709600  0.56322156    -0.61400
O105        O  0.45105318  0.68768925  0.58274409    -0.73900
O106        O  0.44877792  0.82464632  0.58950956    -0.72600
Cu107      Cu  0.53775983  0.80394254  0.58023499     1.04600
Cu108      Cu  0.44603815  0.75440786  0.58627699     1.04300
C109        C  0.49229775  0.86856543  0.58792316     0.93700
C110        C  0.49548141  0.69089522  0.57941287     0.92800
C111        C  0.46563797  0.78143574  0.55272638     0.84900
C112        C  0.51376438  0.78040286  0.61421478     0.91200
O113        O  0.30700890  0.74230229  0.22947811    -0.72500
O114        O  0.31587318  0.79772778  0.27372387    -0.73500
O115        O  0.24228289  0.70438501  0.25704733    -0.62100
O116        O  0.38055436  0.83909604  0.24596858    -0.70500
O117        O  0.33333344  0.87731597  0.23981621    -0.70100
O118        O  0.19873045  0.74380870  0.24812297    -0.61400
O119        O  0.26555129  0.83211477  0.26706566    -0.73900
O120        O  0.26616595  0.78481429  0.22091063    -0.72600
Cu121      Cu  0.31324483  0.76968280  0.25176939     1.04600
Cu122      Cu  0.26461927  0.81103561  0.24362506     1.04300
C123        C  0.28454995  0.75365373  0.21826294     0.93700
C124        C  0.29079604  0.82143749  0.27766402     0.92800
C125        C  0.19867330  0.70366669  0.25422399     0.84900
C126        C  0.37811439  0.88023962  0.24175660     0.91200
O127        O  0.20420415  0.73866668  0.42546673    -0.72500
O128        O  0.33669201  0.87636119  0.42279021    -0.73500
O129        O  0.25510856  0.81526758  0.40065296    -0.62100
O130        O  0.29035500  0.79947079  0.44770444    -0.70500
O131        O  0.33127513  0.75764154  0.43891075    -0.70100
O132        O  0.29994562  0.77550004  0.39358577    -0.61400
O133        O  0.38175895  0.83717468  0.41526521    -0.73900
O134        O  0.24464906  0.69541785  0.41740001    -0.72600
Cu135      Cu  0.26975440  0.80848293  0.42452917     1.04600
Cu136      Cu  0.31551233  0.76464464  0.41606787     1.04300
C137        C  0.20239148  0.69569985  0.42144247     0.93700
C138        C  0.37976828  0.87914535  0.41840317     0.92800
C139        C  0.27510135  0.79959211  0.38975167     0.84900
C140        C  0.31873067  0.77775691  0.45043588     0.91200
O141        O  0.73116175  0.22379169  0.24151623    -0.72500
O142        O  0.86300811  0.36188271  0.24816788    -0.73500
O143        O  0.79902787  0.27565793  0.26847863    -0.62100
O144        O  0.79542117  0.31392080  0.22111021    -0.70500
O145        O  0.75038951  0.35327697  0.22838995    -0.70100
O146        O  0.74786128  0.31005716  0.27366981    -0.61400
O147        O  0.81670880  0.40030414  0.25512870    -0.73900
O148        O  0.68184381  0.26030305  0.24672174    -0.72600
Cu149      Cu  0.79864621  0.29229379  0.24450996     1.04600
Cu150      Cu  0.74736457  0.33203267  0.25115346     1.04300
C151        C  0.68574544  0.21960145  0.24319604     0.93700
C152        C  0.86118811  0.40232505  0.25302938     0.92800
C153        C  0.77385050  0.28810853  0.27851905     0.84900
C154        C  0.77395945  0.34196984  0.21762339     0.91200
O155        O  0.76438654  0.32934655  0.39607524    -0.72500
O156        O  0.72468908  0.33093475  0.44149310    -0.73500
O157        O  0.81569735  0.40030667  0.42184543    -0.62100
O158        O  0.67906677  0.26041081  0.41562543    -0.70500
O159        O  0.72289986  0.21886727  0.42222923    -0.70100
O160        O  0.85489164  0.35447312  0.42867097    -0.61400
O161        O  0.76563185  0.28767599  0.44918842    -0.73900
O162        O  0.80718135  0.28623952  0.40180812    -0.72600
Cu163      Cu  0.74491592  0.33216209  0.41861282     1.04600
Cu164      Cu  0.78942076  0.28565922  0.42583863     1.04300
C165        C  0.78912670  0.30603865  0.39147037     0.93700
C166        C  0.73594485  0.30750843  0.45242291     0.92800
C167        C  0.85747762  0.39851697  0.42561903     0.84900
C168        C  0.68063868  0.21761708  0.41766734     0.91200
C169        C  0.76362673  0.29056997  0.34943745     0.20700
C170        C  0.73407675  0.28656263  0.33578490    -0.39100
C171        C  0.75430268  0.28077881  0.32130422     0.19700
C172        C  0.80108452  0.27969652  0.32022530     0.22400
C173        C  0.83087458  0.28327783  0.33411693    -0.39600
C174        C  0.80988430  0.28828867  0.34889145     0.21200
N175        N  0.75237316  0.29756962  0.36441609    -0.32900
C176        C  0.79075372  0.29907300  0.37393335    -0.10500
C177        C  0.82768666  0.29309571  0.36471058    -0.29300
N178        N  0.81326252  0.27832956  0.30463177    -0.45900
C179        C  0.77371811  0.27876347  0.29598397    -0.05200
C180        C  0.73631216  0.27972022  0.30607445    -0.22500
H181        H  0.69818676  0.28888664  0.33637640     0.19300
H182        H  0.86781831  0.28301559  0.33345619     0.18100
H183        H  0.86289763  0.29319843  0.36891047     0.14400
H184        H  0.70209041  0.28283831  0.30266649     0.14200
H185        H  0.71963576  0.30064173  0.36801182     0.32400
H186        H  0.84769329  0.28037050  0.30017100     0.35100
C187        C  0.50684362  0.99449188  0.41386469     0.20700
C188        C  0.56208916  0.02422105  0.41255369    -0.39100
C189        C  0.58390314  0.07937611  0.41285956     0.19700
C190        C  0.55314176  0.10322231  0.41414094     0.22400
C191        C  0.49797903  0.07350014  0.41551100    -0.39600
C192        C  0.47624699  0.01840958  0.41541457     0.21200
N193        N  0.47653666  0.94141792  0.41456051    -0.32900
C194        C  0.42651587  0.93186327  0.41674386    -0.10500
C195        C  0.42476735  0.97879002  0.41731364    -0.29300
N196        N  0.58362589  0.15614632  0.41515824    -0.45900
C197        C  0.63403439  0.16573166  0.41485479    -0.05200
C198        C  0.63586783  0.11902547  0.41327201    -0.22500
H199        H  0.58638087  0.00582117  0.41184509     0.19300
H200        H  0.47390136  0.09188198  0.41702032     0.18100
H201        H  0.39040998  0.98327402  0.41903463     0.14400
H202        H  0.67058750  0.11456321  0.41320639     0.14200
H203        H  0.48912462  0.91360472  0.41390402     0.32400
H204        H  0.57103127  0.18363973  0.41688029     0.35100
C205        C  0.06477978  0.59963006  0.42080352     0.20700
C206        C  0.01037580  0.58239895  0.42054461    -0.39100
C207        C  0.97649114  0.52785577  0.42267279     0.19700
C208        C  0.99562685  0.49333303  0.42488945     0.22400
C209        C  0.05010082  0.51044075  0.42486367    -0.39600
C210        C  0.08405661  0.56509029  0.42271471     0.21200
N211        N  0.10472983  0.64973233  0.41985495    -0.32900
C212        C  0.14995233  0.64748825  0.42109366    -0.10500
C213        C  0.13885805  0.59519490  0.42271230    -0.29300
N214        N  0.95544836  0.44363442  0.42679808    -0.45900
C215        C  0.91033454  0.44625416  0.42566137    -0.05200
C216        C  0.92179170  0.49824360  0.42304790    -0.22500
H217        H  0.99558499  0.60962576  0.41900972     0.19300
H218        H  0.06489082  0.48328152  0.42658998     0.18100
H219        H  0.16682689  0.58136863  0.42430025     0.14400
H220        H  0.89402371  0.51227783  0.42136869     0.14200
H221        H  0.10140282  0.68371407  0.41865459     0.32400
H222        H  0.95855978  0.40964281  0.42837483     0.35100
C223        C  0.55657043  0.10433559  0.23990270     0.20700
C224        C  0.50100629  0.07512609  0.23924984    -0.39100
C225        C  0.47823251  0.01970296  0.23893063     0.19700
C226        C  0.50827202  0.99498007  0.23944109     0.22400
C227        C  0.56391733  0.02424324  0.23993717    -0.39600
C228        C  0.58674029  0.07972969  0.24005922     0.21200
N229        N  0.58769888  0.15741739  0.24082477    -0.32900
C230        C  0.63813922  0.16670707  0.24142333    -0.10500
C231        C  0.63905523  0.11921387  0.24090807    -0.29300
N232        N  0.47683038  0.94179282  0.24002568    -0.45900
C233        C  0.42639575  0.93268444  0.23977964    -0.05200
C234        C  0.42586324  0.98035451  0.23897024    -0.22500
H235        H  0.47718144  0.09410844  0.23924906     0.19300
H236        H  0.58769618  0.00524234  0.24044787     0.18100
H237        H  0.67341209  0.11421683  0.24150889     0.14400
H238        H  0.39160872  0.98557375  0.23913379     0.14200
H239        H  0.57539290  0.18550632  0.24118608     0.32400
H240        H  0.48889549  0.91359043  0.24095432     0.35100
C241        C  0.06209059  0.60814911  0.25910883     0.20700
C242        C  0.00742202  0.58917229  0.25788672    -0.39100
C243        C  0.97486727  0.53392836  0.25845827     0.19700
C244        C  0.99556501  0.50048590  0.26009521     0.22400
C245        C  0.05012174  0.51948619  0.26156080    -0.39600
C246        C  0.08265578  0.57467297  0.26098718     0.21200
N247        N  0.10123139  0.65833257  0.25721664    -0.32900
C248        C  0.14703548  0.65695128  0.25779969    -0.10500
C249        C  0.13721478  0.60550310  0.26039305    -0.29300
N250        N  0.95718804  0.44977824  0.25880654    -0.45900
C251        C  0.91164742  0.45064977  0.25637452    -0.05200
C252        C  0.92079452  0.50245702  0.25625759    -0.22500
H253        H  0.99162727  0.61539180  0.25592218     0.19300
H254        H  0.06615687  0.49310322  0.26235363     0.18100
H255        H  0.16575655  0.59205783  0.26068293     0.14400
H256        H  0.89240622  0.51535877  0.25396584     0.14200
H257        H  0.09691142  0.69128440  0.25490202     0.32400
H258        H  0.96194565  0.41651133  0.25906719     0.35100
C259        C  0.26229315  0.83046233  0.31890643     0.20700
C260        C  0.22983812  0.81919000  0.33262652    -0.39100
C261        C  0.25386728  0.82058822  0.34752083     0.19700
C262        C  0.30586990  0.83175635  0.34840564     0.22400
C263        C  0.33797177  0.84303885  0.33485834    -0.39600
C264        C  0.31432446  0.84200006  0.32017638     0.21200
N265        N  0.24810082  0.82651936  0.30329882    -0.32900
C266        C  0.29136294  0.83493003  0.29475198    -0.10500
C267        C  0.33332891  0.84515747  0.30493483    -0.29300
N268        N  0.31883816  0.82679272  0.36345317    -0.45900
C269        C  0.27544949  0.81276243  0.37257088    -0.05200
C270        C  0.23376262  0.80881581  0.36309524    -0.22500
H271        H  0.18858376  0.80836743  0.33172464     0.19300
H272        H  0.37805099  0.85002643  0.33564807     0.18100
H273        H  0.37133130  0.84979156  0.30164589     0.14400
H274        H  0.19374163  0.79640040  0.36688852     0.14200
H275        H  0.21023643  0.81435412  0.29881009     0.32400
H276        H  0.35515265  0.83154774  0.36729711     0.35100
C277        C  0.35951653  0.78945213  0.49191784     0.20700
C278        C  0.36067967  0.79996390  0.50840819    -0.39100
C279        C  0.39837214  0.79454310  0.51760900     0.19700
C280        C  0.43311853  0.78059590  0.51095425     0.22400
C281        C  0.43159855  0.76956314  0.49447991    -0.39600
C282        C  0.39333030  0.77421598  0.48531625     0.21200
N283        N  0.32754241  0.79194941  0.48056337    -0.32900
C284        C  0.34068023  0.77760414  0.46660168    -0.10500
C285        C  0.38143298  0.76612947  0.46919092    -0.29300
N286        N  0.46413845  0.77682007  0.52239635    -0.45900
C287        C  0.44822588  0.78748609  0.53648668    -0.05200
C288        C  0.40741019  0.79872029  0.53390938    -0.22500
H289        H  0.33372143  0.81090563  0.51374849     0.19300
H290        H  0.45787504  0.75763298  0.48919251     0.18100
H291        H  0.40079142  0.75464583  0.46032080     0.14400
H292        H  0.38602567  0.80722732  0.54289971     0.14200
H293        H  0.29892025  0.80310345  0.48219203     0.32400
H294        H  0.49237046  0.76511316  0.52082609     0.35100
C295        C  0.55172894  0.81138594  0.68534065     0.20700
C296        C  0.58169249  0.81891996  0.67123887    -0.39100
C297        C  0.55255098  0.80324861  0.65671489     0.19700
C298        C  0.49806699  0.78126921  0.65655277     0.22400
C299        C  0.46864442  0.77431970  0.67041379    -0.39600
C300        C  0.49745230  0.79040472  0.68465074     0.21200
N301        N  0.56844323  0.82045094  0.70079193    -0.32900
C302        C  0.52399172  0.80497246  0.70972917    -0.10500
C303        C  0.47947856  0.78663495  0.69995393    -0.29300
N304        N  0.47888791  0.76931355  0.64165485    -0.45900
C305        C  0.52088766  0.78412305  0.63183837    -0.05200
C306        C  0.56802590  0.80566768  0.64077981    -0.22500
H307        H  0.62420633  0.83545309  0.67154677     0.19300
H308        H  0.42602493  0.75721214  0.67013454     0.18100
H309        H  0.43859370  0.77005673  0.70363293     0.14400
H310        H  0.60792362  0.82164264  0.63626387     0.14200
H311        H  0.60692223  0.83415693  0.70498753     0.32400
H312        H  0.43914393  0.75323916  0.63832222     0.35100
C313        C  0.52916231  0.00352194  0.59366472     0.20700
C314        C  0.56465123  0.05820197  0.59481495    -0.39100
C315        C  0.54212325  0.09060071  0.59317130     0.19700
C316        C  0.48839764  0.06983083  0.59052941     0.22400
C317        C  0.45283726  0.01519287  0.58960205    -0.39600
C318        C  0.47529894  0.98280672  0.59131811     0.21200
N319        N  0.54132249  0.96487826  0.59335360    -0.32900
C320        C  0.49496897  0.91934721  0.59081095    -0.10500
C321        C  0.45266297  0.92867584  0.58970562    -0.29300
N322        N  0.47738515  0.10871590  0.58810422    -0.45900
C323        C  0.52430205  0.15457150  0.58921934    -0.05200
C324        C  0.56570210  0.14510706  0.59253894    -0.22500
H325        H  0.60688556  0.07434101  0.59627780     0.19300
H326        H  0.41109390  0.99920773  0.58713756     0.18100
H327        H  0.41168227  0.90029647  0.58704058     0.14400
H328        H  0.60745241  0.17394285  0.59360118     0.14200
H329        H  0.57916528  0.96943964  0.59420421     0.32400
H330        H  0.44033626  0.10424002  0.58540482     0.35100
C331        C  0.48269263  0.56198528  0.57757624     0.20700
C332        C  0.45707245  0.50642492  0.57723261    -0.39100
C333        C  0.49038099  0.48458340  0.57624401     0.19700
C334        C  0.54510292  0.51543575  0.57592712     0.22400
C335        C  0.57072577  0.57101966  0.57619023    -0.39600
C336        C  0.53737296  0.59288809  0.57691578     0.21200
N337        N  0.46011908  0.59253193  0.57850993    -0.32900
C338        C  0.50083790  0.64326624  0.57825545    -0.10500
C339        C  0.54948847  0.64494453  0.57728050    -0.29300
N340        N  0.56768082  0.48479581  0.57560883    -0.45900
C341        C  0.52684106  0.43411260  0.57552803    -0.05200
C342        C  0.47818805  0.43253302  0.57585232    -0.22500
H343        H  0.41436031  0.48196031  0.57772005     0.19300
H344        H  0.61345909  0.59546835  0.57588800     0.18100
H345        H  0.58862188  0.67974263  0.57706405     0.14400
H346        H  0.43906092  0.39776260  0.57630010     0.14200
H347        H  0.41964864  0.57970203  0.57926522     0.32400
H348        H  0.60819452  0.49750215  0.57563435     0.35100
C349        C  0.65058332  0.29098683  0.48570581     0.20700
C350        C  0.60372549  0.28329057  0.49309665    -0.39100
C351        C  0.60511958  0.28772811  0.50990941     0.19700
C352        C  0.65011342  0.29941545  0.51859765     0.22400
C353        C  0.69663434  0.30609077  0.51123505    -0.39600
C354        C  0.69508049  0.30113702  0.49442738     0.21200
N355        N  0.65998693  0.29144940  0.46990914    -0.32900
C356        C  0.71051996  0.30114788  0.46837334    -0.10500
C357        C  0.73371223  0.30703020  0.48349332    -0.29300
N358        N  0.64251639  0.30435563  0.53425216    -0.45900
C359        C  0.59223471  0.29546577  0.53573478    -0.05200
C360        C  0.56734625  0.28436874  0.52074681    -0.22500
H361        H  0.56902463  0.27542364  0.48620982     0.19300
H362        H  0.73181782  0.31542028  0.51808736     0.18100
H363        H  0.77388730  0.31648406  0.48610814     0.14400
H364        H  0.52762428  0.27627458  0.51808303     0.14200
H365        H  0.63359450  0.28590955  0.46062854     0.32400
H366        H  0.67015120  0.31348408  0.54343315     0.35100
C367        C  0.54478282  0.00773323  0.75852581     0.20700
C368        C  0.58178153  0.06186720  0.75646824    -0.39100
C369        C  0.56064639  0.09575447  0.75569165     0.19700
C370        C  0.50673221  0.07674015  0.75685609     0.22400
C371        C  0.46966911  0.02253881  0.75861704    -0.39600
C372        C  0.49081372  0.98870003  0.75941767     0.21200
N373        N  0.55497126  0.96782797  0.75983422    -0.32900
C374        C  0.50730125  0.92290256  0.76142622    -0.10500
C375        C  0.46610619  0.93421090  0.76116263    -0.29300
N376        N  0.49672334  0.11685220  0.75650795    -0.45900
C377        C  0.54437800  0.16190054  0.75509044    -0.05200
C378        C  0.58542300  0.15044128  0.75438514    -0.22500
H379        H  0.62395041  0.07653343  0.75575497     0.19300
H380        H  0.42754224  0.00793208  0.75951170     0.18100
H381        H  0.42400332  0.90644057  0.76195402     0.14400
H382        H  0.62749246  0.17822952  0.75349664     0.14200
H383        H  0.59224958  0.97087262  0.75927328     0.32400
H384        H  0.45947274  0.11374051  0.75736645     0.35100
C385        C  0.55236699  0.51849522  0.74648284     0.20700
C386        C  0.57607919  0.57336629  0.74416409    -0.39100
C387        C  0.54276203  0.59465592  0.74641340     0.19700
C388        C  0.48976496  0.56377552  0.75049549     0.22400
C389        C  0.46614907  0.50903146  0.75285564    -0.39600
C390        C  0.49951310  0.48785477  0.75072005     0.21200
N391        N  0.57581178  0.48876892  0.74578308    -0.32900
C392        C  0.53740915  0.43907739  0.74973471    -0.10500
C393        C  0.48943155  0.43703293  0.75281126    -0.29300
N394        N  0.46748877  0.59396081  0.75282590    -0.45900
C395        C  0.50698655  0.64438999  0.75048524    -0.05200
C396        C  0.55428057  0.64642264  0.74634965    -0.22500
H397        H  0.61766775  0.59787034  0.74127172     0.19300
H398        H  0.42519709  0.48489899  0.75649398     0.18100
H399        H  0.45225961  0.40293207  0.75639006     0.14400
H400        H  0.59250062  0.68134902  0.74425399     0.14200
H401        H  0.61544397  0.50158627  0.74311764     0.32400
H402        H  0.42883735  0.58139197  0.75663340     0.35100
C403        C  0.47281035  0.26401004  0.68168419     0.20700
C404        C  0.44553486  0.23647658  0.66765261    -0.39100
C405        C  0.46383276  0.26490925  0.65302591     0.19700
C406        C  0.50585143  0.31647461  0.65266044     0.22400
C407        C  0.53312823  0.34329580  0.66645747    -0.39600
C408        C  0.51519533  0.31523723  0.68081711     0.21200
N409        N  0.46561504  0.24616230  0.69704343    -0.32900
C410        C  0.50449653  0.28656160  0.70568636    -0.10500
C411        C  0.53580935  0.32982084  0.69589471    -0.29300
N412        N  0.51953508  0.33369302  0.63758888    -0.45900
C413        C  0.48697878  0.29320636  0.62790009    -0.05200
C414        C  0.45084412  0.24942145  0.63707961    -0.22500
H415        H  0.41370378  0.19566136  0.66802858     0.19300
H416        H  0.56730715  0.38283592  0.66597154     0.18100
H417        H  0.57018017  0.36693158  0.69935444     0.14400
H418        H  0.42275455  0.21019959  0.63275869     0.14200
H419        H  0.43771563  0.20853606  0.70123068     0.32400
H420        H  0.55210950  0.36977500  0.63407897     0.35100
C421        C  0.39103555  0.67785686  0.85513889     0.20700
C422        C  0.43062867  0.72372286  0.84739216    -0.39100
C423        C  0.43857001  0.71825943  0.83104700     0.19700
C424        C  0.40854814  0.67076037  0.82309488     0.22400
C425        C  0.36939147  0.62480569  0.83087613    -0.39600
C426        C  0.36198716  0.63009839  0.84724266     0.21200
N427        N  0.37656211  0.67267266  0.87061461    -0.32900
C428        C  0.33855376  0.62110776  0.87275494    -0.10500
C429        C  0.32828717  0.59320221  0.85838346    -0.29300
N430        N  0.42075119  0.67656021  0.80743719    -0.45900
C431        C  0.45916728  0.72786804  0.80524462    -0.05200
C432        C  0.47181666  0.75524310  0.81978381    -0.22500
H433        H  0.45330983  0.76101725  0.85362241     0.19300
H434        H  0.34611802  0.58770961  0.82459557     0.18100
H435        H  0.30084565  0.55148143  0.85642898     0.14400
H436        H  0.49876863  0.79711206  0.82165964     0.14200
H437        H  0.39284478  0.70219762  0.87934541     0.32400
H438        H  0.40252292  0.64772070  0.79857779     0.35100
C439        C  0.27145947  0.67062914  0.18491047     0.20700
C440        C  0.26543471  0.62485331  0.17725721    -0.39100
C441        C  0.27346999  0.62877388  0.16057538     0.19700
C442        C  0.28699363  0.67506384  0.15228592     0.22400
C443        C  0.29203410  0.72042351  0.15988209    -0.39600
C444        C  0.28340938  0.71632408  0.17650427     0.21200
N445        N  0.26910324  0.67809977  0.20071535    -0.32900
C446        C  0.27898515  0.72863077  0.20243413    -0.10500
C447        C  0.28749088  0.75361895  0.18754813    -0.29300
N448        N  0.29410425  0.66948319  0.13667588    -0.45900
C449        C  0.28442281  0.61909923  0.13480477    -0.05200
C450        C  0.27121847  0.59224989  0.14949551    -0.22500
H451        H  0.25599617  0.58910834  0.18384968     0.19300
H452        H  0.30268170  0.75656938  0.15334209     0.18100
H453        H  0.29804453  0.79431811  0.18520976     0.14400
H454        H  0.26155194  0.55177000  0.15176897     0.14200
H455        H  0.26219108  0.65077787  0.20985784     0.32400
H456        H  0.30432088  0.69823206  0.12773431     0.35100
C457        C  0.25980830  0.48836940  0.01889059     0.20700
C458        C  0.22782296  0.46487810  0.00524246    -0.39100
C459        C  0.25124817  0.48716418  0.99032769     0.19700
C460        C  0.30250604  0.52950774  0.98931600     0.22400
C461        C  0.33431612  0.55256874  0.00279432    -0.39600
C462        C  0.31101374  0.53060312  0.01753710     0.21200
N463        N  0.24511422  0.47948631  0.03444512    -0.32900
C464        C  0.28704586  0.51709010  0.04285006    -0.10500
C465        C  0.32888177  0.54909637  0.03268423    -0.29300
N466        N  0.31419274  0.54749649  0.97427653    -0.45900
C467        C  0.27048765  0.51691302  0.96540158    -0.05200
C468        C  0.23021402  0.47798204  0.97489981    -0.22500
H469        H  0.18696393  0.43350457  0.00621569     0.19300
H470        H  0.37343294  0.58722140  0.00190856     0.18100
H471        H  0.36575905  0.58424356  0.03585120     0.14400
H472        H  0.19020425  0.44956111  0.97127343     0.14200
H473        H  0.20749447  0.45289700  0.03890506     0.32400
H474        H  0.34940179  0.58027401  0.97034076     0.35100
C475        C  0.97181943  0.51010006  0.91240256     0.20700
C476        C  0.00179413  0.48491642  0.91415403    -0.39100
C477        C  0.05693159  0.51844986  0.91414048     0.19700
C478        C  0.08076707  0.57305068  0.91271974     0.22400
C479        C  0.05076669  0.59823841  0.91076498    -0.39600
C480        C  0.99552700  0.56457720  0.91058432     0.21200
N481        N  0.91867322  0.48731064  0.91264603    -0.32900
C482        C  0.90854089  0.52763260  0.91088371    -0.10500
C483        C  0.95543843  0.57626942  0.90941121    -0.29300
N484        N  0.13395366  0.59588098  0.91339242    -0.45900
C485        C  0.14369118  0.55520347  0.91500173    -0.05200
C486        C  0.09670785  0.50650700  0.91549315    -0.22500
H487        H  0.98355381  0.44236325  0.91553911     0.19300
H488        H  0.06900136  0.64085919  0.90960193     0.18100
H489        H  0.95962668  0.61523230  0.90826318     0.14400
H490        H  0.09231796  0.46748573  0.91673891     0.14200
H491        H  0.89110998  0.44705852  0.91423226     0.32400
H492        H  0.16178373  0.63631595  0.91254300     0.35100
C493        C  0.54858504  0.50819501  0.92456164     0.20700
C494        C  0.49323071  0.48282851  0.92496733    -0.39100
C495        C  0.47184417  0.51646245  0.92566034     0.19700
C496        C  0.50294622  0.57122272  0.92619715     0.22400
C497        C  0.55834789  0.59660960  0.92581970    -0.39600
C498        C  0.57972903  0.56297715  0.92483083     0.21200
N499        N  0.57849603  0.48536920  0.92264345    -0.32900
C500        C  0.62882782  0.52612482  0.92138254    -0.10500
C501        C  0.63119954  0.57496678  0.92279847    -0.29300
N502        N  0.47277453  0.59418713  0.92560728    -0.45900
C503        C  0.42234507  0.55355972  0.92435845    -0.05200
C504        C  0.42020352  0.50465644  0.92453629    -0.22500
H505        H  0.46858456  0.44017648  0.92410371     0.19300
H506        H  0.58291413  0.63937572  0.92560178     0.18100
H507        H  0.66590355  0.61407936  0.92198805     0.14400
H508        H  0.38555022  0.46570487  0.92326349     0.14200
H509        H  0.56536388  0.44489967  0.92157760     0.32400
H510        H  0.48576638  0.63476667  0.92520525     0.35100
C511        C  0.69998890  0.44551326  0.84326559     0.20700
C512        C  0.70403784  0.45111114  0.82648362    -0.39100
C513        C  0.66409725  0.40900182  0.81755702     0.19700
C514        C  0.62264779  0.36477557  0.82470311     0.22400
C515        C  0.61918412  0.35867275  0.84149218    -0.39600
C516        C  0.65951927  0.40054631  0.85042375     0.21200
N517        N  0.73212281  0.48048629  0.85443693    -0.32900
C518        C  0.71242965  0.45731205  0.86886438    -0.10500
C519        C  0.66735993  0.40732656  0.86676954    -0.29300
N520        N  0.58874410  0.33139198  0.81351299    -0.45900
C521        C  0.60930980  0.35421939  0.79910537    -0.05200
C522        C  0.65636909  0.40245782  0.80122350    -0.22500
H523        H  0.73575255  0.48594408  0.82076859     0.19300
H524        H  0.58718092  0.32406932  0.84720973     0.18100
H525        H  0.64288119  0.37997798  0.87604097     0.14400
H526        H  0.68119839  0.42968065  0.79197816     0.14200
H527        H  0.76547992  0.51766673  0.85237369     0.32400
H528        H  0.55411782  0.29519790  0.81553898     0.35100
C529        C  0.77252639  0.41593190  0.15046444     0.20700
C530        C  0.77367176  0.37362002  0.15840615    -0.39100
C531        C  0.77675570  0.37665351  0.17524430     0.19700
C532        C  0.77766689  0.41834301  0.18340787     0.22400
C533        C  0.77727396  0.46087771  0.17547846    -0.39600
C534        C  0.77509786  0.45829664  0.15868240     0.21200
N535        N  0.76928916  0.42221124  0.13459352    -0.32900
C536        C  0.77077654  0.46932046  0.13259847    -0.10500
C537        C  0.77450766  0.49310607  0.14740415    -0.29300
N538        N  0.77776507  0.41099670  0.19928657    -0.45900
C539        C  0.77747405  0.36464037  0.20145417    -0.05200
C540        C  0.77738451  0.34207452  0.18668199    -0.22500
H541        H  0.77194648  0.34063941  0.15194840     0.19300
H542        H  0.77827219  0.49349584  0.18194962     0.18100
H543        H  0.77595867  0.53039345  0.14962718     0.14400
H544        H  0.77580469  0.30465352  0.18460258     0.14200
H545        H  0.76695052  0.39629699  0.12560213     0.32400
H546        H  0.77748173  0.43594470  0.20820541     0.35100
C547        C  0.97189592  0.51188884  0.07843000     0.20700
C548        C  0.00083864  0.48588141  0.08069146    -0.39100
C549        C  0.05602562  0.51814530  0.08002848     0.19700
C550        C  0.08088805  0.57224300  0.07720169     0.22400
C551        C  0.05191084  0.59842045  0.07503644    -0.39600
C552        C  0.99657213  0.56614367  0.07586177     0.21200
N553        N  0.91916715  0.49068298  0.07975673    -0.32900
C554        C  0.91037415  0.53192217  0.07835182    -0.10500
C555        C  0.95754080  0.57951905  0.07580142    -0.29300
N556        N  0.13394490  0.59409545  0.07787747    -0.45900
C557        C  0.14251657  0.55347391  0.08132742    -0.05200
C558        C  0.09492052  0.50564253  0.08269868    -0.22500
H559        H  0.98183582  0.44386090  0.08329265     0.19300
H560        H  0.07101498  0.64094251  0.07337751     0.18100
H561        H  0.96275730  0.61894678  0.07486200     0.14400
H562        H  0.08949820  0.46701393  0.08567629     0.14200
H563        H  0.89136493  0.45131306  0.08250065     0.32400
H564        H  0.16235900  0.63418137  0.07659031     0.35100
C565        C  0.55221930  0.51493219  0.09532465     0.20700
C566        C  0.49670670  0.48898664  0.09552776    -0.39100
C567        C  0.47450633  0.52204894  0.09592927     0.19700
C568        C  0.50498617  0.57685350  0.09591866     0.22400
C569        C  0.56057228  0.60283666  0.09590212    -0.39600
C570        C  0.58280737  0.56971808  0.09568804     0.21200
N571        N  0.58294739  0.49260989  0.09429804    -0.32900
C572        C  0.63350286  0.53357170  0.09413662    -0.10500
C573        C  0.63491537  0.58215156  0.09508481    -0.29300
N574        N  0.47401444  0.59907205  0.09550952    -0.45900
C575        C  0.42350890  0.55791007  0.09545335    -0.05200
C576        C  0.42238027  0.50943463  0.09576314    -0.22500
H577        H  0.47252041  0.44620438  0.09515864     0.19300
H578        H  0.58474231  0.64564319  0.09581498     0.18100
H579        H  0.66950996  0.62143668  0.09481151     0.14400
H580        H  0.38788223  0.47010090  0.09538483     0.14200
H581        H  0.57031908  0.45215547  0.09351472     0.32400
H582        H  0.48640155  0.63952964  0.09511203     0.35100
C583        C  0.75447367  0.55523407  0.98610459     0.20700
C584        C  0.72234696  0.53534473  0.99972465    -0.39100
C585        C  0.74686889  0.55684133  0.01440524     0.19700
C586        C  0.79970153  0.59545348  0.01559817     0.22400
C587        C  0.83210240  0.61575340  0.00181329    -0.39600
C588        C  0.80726821  0.59424442  0.98693898     0.21200
N589        N  0.74088930  0.53753683  0.97106685    -0.32900
C590        C  0.78469872  0.56526885  0.96192132    -0.10500
C591        C  0.82724418  0.60168363  0.97136529    -0.29300
N592        N  0.81446046  0.60467126  0.03118893    -0.45900
C593        C  0.77071322  0.57111735  0.03983224    -0.05200
C594        C  0.72793323  0.54117409  0.02970326    -0.22500
H595        H  0.68158580  0.50354246  0.99899498     0.19300
H596        H  0.87391540  0.64456273  0.00265566     0.18100
H597        H  0.86772735  0.62755918  0.96757729     0.14400
H598        H  0.68922067  0.50896340  0.03305975     0.14200
H599        H  0.70398323  0.50691289  0.96726322     0.32400
H600        H  0.85280018  0.62878122  0.03559609     0.35100
loop_ 
_geom_bond_atom_site_label_1 
_geom_bond_atom_site_label_2 
_geom_bond_distance 
_geom_bond_site_symmetry_2 
_ccdc_geom_bond_type 
O1           Cu9   1.996       .  S
O1           C11   1.275       .  A
O2           Cu9   1.995       .  S
O2           C12   1.273       .  A
O3           Cu9   2.043       .  S
O3           C13   1.282       .  A
O4           Cu9   2.035       .  S
O4           C14   1.282       .  A
O5          Cu10   1.972       .  S
O5           C14   1.272       .  A
O6          Cu10   1.985       .  S
O6           C13   1.273       .  A
O7          Cu10   2.066       .  S
O7           C12   1.286       .  A
O8          Cu10   2.056       .  S
O8           C11   1.283       .  A
Cu9         Cu10   2.371       .  S
C11         C593   1.482       .  S
C12         C536   1.484       .  S
C13         C572   1.474       .  S
C14         C554   1.465       .  S
O15         Cu23   1.969       .  S
O15          C25   1.272       .  A
O16         Cu23   1.974       .  S
O16          C26   1.272       .  A
O17         Cu23   2.077       .  S
O17          C27   1.287       .  A
O18         Cu23   2.069       .  S
O18          C28   1.285       .  A
O19         Cu24   1.993       .  S
O19          C28   1.274       .  A
O20         Cu24   1.996       .  S
O20          C27   1.274       .  A
O21         Cu24   2.046       .  S
O21          C26   1.283       .  A
O22         Cu24   2.031       .  S
O22          C25   1.281       .  A
Cu23        Cu24   2.371       .  S
C25         C500   1.464       .  S
C26         C482   1.471       .  S
C27         C518   1.491       .  S
C28         C590   1.483       .  S
O29         Cu37   1.983       .  S
O29          C39   1.274       .  A
O30         Cu37   1.973       .  S
O30          C40   1.273       .  A
O31         Cu37   2.048       .  S
O31          C41   1.282       .  A
O32         Cu37   2.058       .  S
O32          C42   1.284       .  A
O33         Cu38   1.992       .  S
O33          C42   1.274       .  A
O34         Cu38   1.988       .  S
O34          C41   1.275       .  A
O35         Cu38   2.040       .  S
O35          C40   1.282       .  A
O36         Cu38   2.041       .  S
O36          C39   1.282       .  A
Cu37        Cu38   2.372       .  S
C39         C575   1.474       .  S
C40         C557   1.469       .  S
C41         C464   1.474       .  S
C42         C449   1.483       .  S
O43         Cu51   1.965       .  S
O43          C53   1.272       .  A
O44         Cu51   1.974       .  S
O44          C54   1.272       .  A
O45         Cu51   2.060       .  S
O45          C55   1.285       .  A
O46         Cu51   2.048       .  S
O46          C56   1.282       .  A
O47         Cu52   1.978       .  S
O47          C56   1.273       .  A
O48         Cu52   1.985       .  S
O48          C55   1.273       .  A
O49         Cu52   2.044       .  S
O49          C54   1.282       .  A
O50         Cu52   2.034       .  S
O50          C53   1.281       .  A
Cu51        Cu52   2.374       .  S
C53         C503   1.464       .  S
C54         C485   1.470       .  S
C55         C428   1.483       .  S
C56         C467   1.471       .  S
O57         Cu65   1.992       .  S
O57          C67   1.274       .  A
O58         Cu65   1.982       .  S
O58          C68   1.274       .  A
O59         Cu65   2.039       .  S
O59          C69   1.282       .  A
O60         Cu65   2.052       .  S
O60          C70   1.284       .  A
O61         Cu66   1.965       .  S
O61          C70   1.270       .  A
O62         Cu66   1.962       .  S
O62          C69   1.271       .  A
O63         Cu66   2.070       .  S
O63          C68   1.284       .  A
O64         Cu66   2.077       .  S
O64          C67   1.287       .  A
Cu65        Cu66   2.371       .  S
C67         C521   1.490       .  S
C68         C410   1.482       .  S
C69         C392   1.465       .  S
C70         C377   1.471       .  S
O71         Cu79   1.987       .  S
O71          C81   1.274       .  A
O72         Cu79   1.995       .  S
O72          C82   1.274       .  A
O73         Cu79   2.039       .  S
O73          C83   1.281       .  A
O74         Cu79   2.028       .  S
O74          C84   1.281       .  A
O75         Cu80   1.963       .  S
O75          C84   1.271       .  A
O76         Cu80   1.986       .  S
O76          C83   1.274       .  A
O77         Cu80   2.073       .  S
O77          C82   1.287       .  A
O78         Cu80   2.063       .  S
O78          C81   1.283       .  A
Cu79        Cu80   2.372       .  S
C81         C413   1.480       .  S
C82         C359   1.491       .  S
C83         C341   1.473       .  S
C84         C323   1.461       .  S
O85         Cu93   1.979       .  S
O85          C95   1.273       .  A
O86         Cu93   1.967       .  S
O86          C96   1.271       .  A
O87         Cu93   2.065       .  S
O87          C97   1.284       .  A
O88         Cu93   2.077       .  S
O88          C98   1.287       .  A
O89         Cu94   1.980       .  S
O89          C98   1.271       .  A
O90         Cu94   1.972       .  S
O90          C97   1.274       .  A
O91         Cu94   2.027       .  S
O91          C96   1.280       .  A
O92         Cu94   2.038       .  S
O92          C95   1.282       .  A
Cu93        Cu94   2.372       .  S
C95         C374   1.471       .  S
C96         C395   1.460       .  S
C97         C302   1.482       .  S
C98         C431   1.482       .  S
O99        Cu107   1.976       .  S
O99         C109   1.272       .  A
O100       Cu107   1.984       .  S
O100        C110   1.274       .  A
O101       Cu107   2.074       .  S
O101        C111   1.286       .  A
O102       Cu107   2.060       .  S
O102        C112   1.283       .  A
O103       Cu108   1.983       .  S
O103        C112   1.274       .  A
O104       Cu108   1.991       .  S
O104        C111   1.274       .  A
O105       Cu108   2.043       .  S
O105        C110   1.282       .  A
O106       Cu108   2.026       .  S
O106        C109   1.280       .  A
Cu107      Cu108   2.372       .  S
C109        C320   1.462       .  S
C110        C338   1.475       .  S
C111        C287   1.486       .  S
C112        C305   1.482       .  S
O113       Cu121   1.999       .  S
O113        C123   1.274       .  A
O114       Cu121   1.995       .  S
O114        C124   1.276       .  A
O115       Cu121   2.037       .  S
O115        C125   1.282       .  A
O116       Cu121   2.049       .  S
O116        C126   1.283       .  A
O117       Cu122   1.992       .  S
O117        C126   1.275       .  A
O118       Cu122   1.974       .  S
O118        C125   1.272       .  A
O119       Cu122   2.049       .  S
O119        C124   1.282       .  A
O120       Cu122   2.056       .  S
O120        C123   1.284       .  A
Cu121      Cu122   2.369       .  S
C123        C446   1.480       .  S
C124        C266   1.479       .  S
C125        C248   1.468       .  S
C126        C233   1.480       .  S
O127       Cu135   1.976       .  S
O127        C137   1.272       .  A
O128       Cu135   1.969       .  S
O128        C138   1.272       .  A
O129       Cu135   2.066       .  S
O129        C139   1.284       .  A
O130       Cu135   2.078       .  S
O130        C140   1.287       .  A
O131       Cu136   1.993       .  S
O131        C140   1.274       .  A
O132       Cu136   1.990       .  S
O132        C139   1.274       .  A
O133       Cu136   2.028       .  S
O133        C138   1.280       .  A
O134       Cu136   2.044       .  S
O134        C137   1.282       .  A
Cu135      Cu136   2.371       .  S
C137        C212   1.470       .  S
C138        C194   1.463       .  S
C139        C269   1.481       .  S
C140        C284   1.492       .  S
O141       Cu149   1.997       .  S
O141        C151   1.275       .  A
O142       Cu149   1.979       .  S
O142        C152   1.273       .  A
O143       Cu149   2.057       .  S
O143        C153   1.282       .  A
O144       Cu149   2.066       .  S
O144        C154   1.285       .  A
O145       Cu150   1.984       .  S
O145        C154   1.273       .  A
O146       Cu150   1.985       .  S
O146        C153   1.275       .  A
O147       Cu150   2.032       .  S
O147        C152   1.280       .  A
O148       Cu150   2.039       .  S
O148        C151   1.282       .  A
Cu149      Cu150   2.371       .  S
C151        C230   1.477       .  S
C152        C251   1.467       .  S
C153        C179   1.481       .  S
C154        C539   1.481       .  S
O155       Cu163   1.980       .  S
O155        C165   1.273       .  A
O156       Cu163   1.995       .  S
O156        C166   1.273       .  A
O157       Cu163   2.043       .  S
O157        C167   1.283       .  A
O158       Cu163   2.025       .  S
O158        C168   1.280       .  A
O159       Cu164   1.965       .  S
O159        C168   1.271       .  A
O160       Cu164   1.972       .  S
O160        C167   1.271       .  A
O161       Cu164   2.081       .  S
O161        C166   1.287       .  A
O162       Cu164   2.071       .  S
O162        C165   1.284       .  A
Cu163      Cu164   2.372       .  S
C165        C176   1.483       .  S
C166        C356   1.491       .  S
C167        C215   1.471       .  S
C168        C197   1.460       .  S
C169        C174   1.383       .  A
C169        C170   1.396       .  A
C169        N175   1.335       .  A
C170        C171   1.394       .  A
C170        H181   1.083       .  S
C171        C180   1.368       .  A
C171        C172   1.383       .  A
C172        C173   1.419       .  A
C172        N178   1.356       .  A
C173        C174   1.418       .  A
C173        H182   1.082       .  S
C174        C177   1.399       .  A
N175        C176   1.353       .  A
N175        H185   1.047       .  S
C176        C177   1.405       .  A
C177        H183   1.082       .  S
N178        C179   1.363       .  A
N178        H186   1.045       .  S
C179        C180   1.391       .  A
C180        H184   1.083       .  S
C187        C192   1.386   1_565  A
C187        C188   1.400   1_565  A
C187        N193   1.344       .  A
C188        C189   1.401       .  A
C188        H199   1.082       .  S
C189        C198   1.371       .  A
C189        C190   1.386       .  A
C190        C191   1.398       .  A
C190        N196   1.343       .  A
C191        C192   1.399       .  A
C191        H200   1.082       .  S
C192        C195   1.369   1_545  A
N193        C194   1.353       .  A
N193        H203   1.045       .  S
C194        C195   1.394       .  A
C195        H201   1.083       .  S
N196        C197   1.352       .  A
N196        H204   1.045       .  S
C197        C198   1.394       .  A
C198        H202   1.083       .  S
C205        C210   1.384       .  A
C205        C206   1.404       .  A
C205        N211   1.338       .  A
C206        C207   1.400   1_455  A
C206        H217   1.082   1_455  S
C207        C216   1.382       .  A
C207        C208   1.384       .  A
C208        C209   1.406   1_655  A
C208        N214   1.340       .  A
C209        C210   1.403       .  A
C209        H218   1.082       .  S
C210        C213   1.385       .  A
N211        C212   1.355       .  A
N211        H221   1.046       .  S
C212        C213   1.396       .  A
C213        H219   1.082       .  S
N214        C215   1.358       .  A
N214        H222   1.046       .  S
C215        C216   1.394       .  A
C216        H220   1.082       .  S
C223        C228   1.384       .  A
C223        C224   1.404       .  A
C223        N229   1.348       .  A
C224        C225   1.405       .  A
C224        H235   1.082       .  S
C225        C234   1.376   1_545  A
C225        C226   1.384   1_545  A
C226        C227   1.405   1_565  A
C226        N232   1.349       .  A
C227        C228   1.406       .  A
C227        H236   1.082       .  S
C228        C231   1.378       .  A
N229        C230   1.356       .  A
N229        H239   1.045       .  S
C230        C231   1.397       .  A
C231        H237   1.082       .  S
N232        C233   1.357       .  A
N232        H240   1.045       .  S
C233        C234   1.397       .  A
C234        H238   1.082       .  S
C241        C246   1.384       .  A
C241        C242   1.405       .  A
C241        N247   1.339       .  A
C242        C243   1.401   1_455  A
C242        H253   1.082   1_455  S
C243        C252   1.383       .  A
C243        C244   1.385       .  A
C244        C245   1.403   1_655  A
C244        N250   1.338       .  A
C245        C246   1.400       .  A
C245        H254   1.082       .  S
C246        C249   1.382       .  A
N247        C248   1.356       .  A
N247        H257   1.045       .  S
C248        C249   1.394       .  A
C249        H255   1.082       .  S
N250        C251   1.355       .  A
N250        H258   1.045       .  S
C251        C252   1.395       .  A
C252        H256   1.082       .  S
C259        C264   1.383       .  A
C259        C260   1.416       .  A
C259        N265   1.353       .  A
C260        C261   1.415       .  A
C260        H271   1.082       .  S
C261        C270   1.397       .  A
C261        C262   1.384       .  A
C262        C263   1.399       .  A
C262        N268   1.338       .  A
C263        C264   1.397       .  A
C263        H272   1.083       .  S
C264        C267   1.373       .  A
N265        C266   1.361       .  A
N265        H275   1.045       .  S
C266        C267   1.392       .  A
C267        H273   1.083       .  S
N268        C269   1.353       .  A
N268        H276   1.046       .  S
C269        C270   1.403       .  A
C270        H274   1.082       .  S
C277        C282   1.384       .  A
C277        C278   1.408       .  A
C277        N283   1.354       .  A
C278        C279   1.410       .  A
C278        H289   1.082       .  S
C279        C288   1.379       .  A
C279        C280   1.384       .  A
C280        C281   1.409       .  A
C280        N286   1.354       .  A
C281        C282   1.411       .  A
C281        H290   1.082       .  S
C282        C285   1.380       .  A
N283        C284   1.359       .  A
N283        H293   1.045       .  S
C284        C285   1.401       .  A
C285        H291   1.082       .  S
N286        C287   1.358       .  A
N286        H294   1.045       .  S
C287        C288   1.398       .  A
C288        H292   1.082       .  S
C295        C300   1.383       .  A
C295        C296   1.417       .  A
C295        N301   1.357       .  A
C296        C297   1.418       .  A
C296        H307   1.082       .  S
C297        C306   1.396       .  A
C297        C298   1.384       .  A
C298        C299   1.395       .  A
C298        N304   1.336       .  A
C299        C300   1.393       .  A
C299        H308   1.083       .  S
C300        C303   1.365       .  A
N301        C302   1.363       .  A
N301        H311   1.044       .  S
C302        C303   1.392       .  A
C303        H309   1.083       .  S
N304        C305   1.353       .  A
N304        H312   1.046       .  S
C305        C306   1.405       .  A
C306        H310   1.082       .  S
C313        C318   1.385   1_545  A
C313        C314   1.403       .  A
C313        N319   1.339   1_545  A
C314        C315   1.399       .  A
C314        H325   1.082       .  S
C315        C324   1.379       .  A
C315        C316   1.385       .  A
C316        C317   1.401       .  A
C316        N322   1.337       .  A
C317        C318   1.398   1_545  A
C317        H326   1.082   1_545  S
C318        C321   1.378       .  A
N319        C320   1.355       .  A
N319        H329   1.045       .  S
C320        C321   1.392       .  A
C321        H327   1.082       .  S
N322        C323   1.355       .  A
N322        H330   1.045       .  S
C323        C324   1.392       .  A
C324        H328   1.082       .  S
C331        C336   1.385       .  A
C331        C332   1.403       .  A
C331        N337   1.348       .  A
C332        C333   1.404       .  A
C332        H343   1.082       .  S
C333        C342   1.373       .  A
C333        C334   1.385       .  A
C334        C335   1.403       .  A
C334        N340   1.348       .  A
C335        C336   1.405       .  A
C335        H344   1.082       .  S
C336        C339   1.374       .  A
N337        C338   1.356       .  A
N337        H347   1.046       .  S
C338        C339   1.397       .  A
C339        H345   1.082       .  S
N340        C341   1.356       .  A
N340        H348   1.046       .  S
C341        C342   1.396       .  A
C342        H346   1.083       .  S
C349        C354   1.383       .  A
C349        C350   1.412       .  A
C349        N355   1.346       .  A
C350        C351   1.408       .  A
C350        H361   1.082       .  S
C351        C360   1.392       .  A
C351        C352   1.382       .  A
C352        C353   1.412       .  A
C352        N358   1.346       .  A
C353        C354   1.409       .  A
C353        H362   1.082       .  S
C354        C357   1.393       .  A
N355        C356   1.360       .  A
N355        H365   1.044       .  S
C356        C357   1.400       .  A
C357        H363   1.082       .  S
N358        C359   1.361       .  A
N358        H366   1.044       .  S
C359        C360   1.399       .  A
C360        H364   1.082       .  S
C367        C372   1.384   1_545  A
C367        C368   1.406       .  A
C367        N373   1.340   1_545  A
C368        C369   1.402       .  A
C368        H379   1.082       .  S
C369        C378   1.385       .  A
C369        C370   1.384       .  A
C370        C371   1.405       .  A
C370        N376   1.338       .  A
C371        C372   1.401   1_545  A
C371        H380   1.082       .  S
C372        C375   1.383       .  A
N373        C374   1.357       .  A
N373        H383   1.046       .  S
C374        C375   1.395       .  A
C375        H381   1.082       .  S
N376        C377   1.357       .  A
N376        H384   1.046       .  S
C377        C378   1.395       .  A
C378        H382   1.082       .  S
C385        C390   1.386       .  A
C385        C386   1.401       .  A
C385        N391   1.346       .  A
C386        C387   1.402       .  A
C386        H397   1.082       .  S
C387        C396   1.371       .  A
C387        C388   1.386       .  A
C388        C389   1.398       .  A
C388        N394   1.344       .  A
C389        C390   1.400       .  A
C389        H398   1.083       .  S
C390        C393   1.368       .  A
N391        C392   1.354       .  A
N391        H401   1.045       .  S
C392        C393   1.394       .  A
C393        H399   1.083       .  S
N394        C395   1.352       .  A
N394        H402   1.045       .  S
C395        C396   1.394       .  A
C396        H400   1.083       .  S
C403        C408   1.383       .  A
C403        C404   1.418       .  A
C403        N409   1.358       .  A
C404        C405   1.419       .  A
C404        H415   1.082       .  S
C405        C414   1.396       .  A
C405        C406   1.384       .  A
C406        C407   1.396       .  A
C406        N412   1.338       .  A
C407        C408   1.395       .  A
C407        H416   1.083       .  S
C408        C411   1.367       .  A
N409        C410   1.363       .  A
N409        H419   1.045       .  S
C410        C411   1.390       .  A
C411        H417   1.083       .  S
N412        C413   1.352       .  A
N412        H420   1.045       .  S
C413        C414   1.405       .  A
C414        H418   1.082       .  S
C421        C426   1.383       .  A
C421        C422   1.410       .  A
C421        N427   1.344       .  A
C422        C423   1.407       .  A
C422        H433   1.082       .  S
C423        C432   1.391       .  A
C423        C424   1.383       .  A
C424        C425   1.409       .  A
C424        N430   1.343       .  A
C425        C426   1.405       .  A
C425        H434   1.082       .  S
C426        C429   1.387       .  A
N427        C428   1.360       .  A
N427        H437   1.044       .  S
C428        C429   1.397       .  A
C429        H435   1.082       .  S
N430        C431   1.358       .  A
N430        H438   1.044       .  S
C431        C432   1.398       .  A
C432        H436   1.082       .  S
C439        C444   1.383       .  A
C439        C440   1.410       .  A
C439        N445   1.345       .  A
C440        C441   1.407       .  A
C440        H451   1.082       .  S
C441        C450   1.389       .  A
C441        C442   1.383       .  A
C442        C443   1.407       .  A
C442        N448   1.343       .  A
C443        C444   1.404       .  A
C443        H452   1.082       .  S
C444        C447   1.386       .  A
N445        C446   1.359       .  A
N445        H455   1.045       .  S
C446        C447   1.396       .  A
C447        H453   1.082       .  S
N448        C449   1.358       .  A
N448        H456   1.045       .  S
C449        C450   1.399       .  A
C450        H454   1.082       .  S
C457        C462   1.384       .  A
C457        C458   1.413       .  A
C457        N463   1.351       .  A
C458        C459   1.411   1_554  A
C458        H469   1.082       .  S
C459        C468   1.393       .  A
C459        C460   1.384       .  A
C460        C461   1.397   1_556  A
C460        N466   1.336       .  A
C461        C462   1.396       .  A
C461        H470   1.083       .  S
C462        C465   1.371       .  A
N463        C464   1.359       .  A
N463        H473   1.044       .  S
C464        C465   1.392       .  A
C465        H471   1.083       .  S
N466        C467   1.352       .  A
N466        H474   1.045       .  S
C467        C468   1.399       .  A
C468        H472   1.082       .  S
C475        C480   1.385       .  A
C475        C476   1.401   1_655  A
C475        N481   1.346       .  A
C476        C477   1.402       .  A
C476        H487   1.082   1_455  S
C477        C486   1.371       .  A
C477        C478   1.385       .  A
C478        C479   1.403       .  A
C478        N484   1.348       .  A
C479        C480   1.405   1_455  A
C479        H488   1.082       .  S
C480        C483   1.374       .  A
N481        C482   1.354       .  A
N481        H491   1.046       .  S
C482        C483   1.397       .  A
C483        H489   1.083       .  S
N484        C485   1.355       .  A
N484        H492   1.046       .  S
C485        C486   1.395       .  A
C486        H490   1.083       .  S
C493        C498   1.386       .  A
C493        C494   1.399       .  A
C493        N499   1.345       .  A
C494        C495   1.401       .  A
C494        H505   1.082       .  S
C495        C504   1.369       .  A
C495        C496   1.386       .  A
C496        C497   1.400       .  A
C496        N502   1.346       .  A
C497        C498   1.402       .  A
C497        H506   1.082       .  S
C498        C501   1.370       .  A
N499        C500   1.353       .  A
N499        H509   1.045       .  S
C500        C501   1.395       .  A
C501        H507   1.083       .  S
N502        C503   1.353       .  A
N502        H510   1.045       .  S
C503        C504   1.394       .  A
C504        H508   1.083       .  S
C511        C516   1.384       .  A
C511        C512   1.408       .  A
C511        N517   1.354       .  A
C512        C513   1.410       .  A
C512        H523   1.082       .  S
C513        C522   1.379       .  A
C513        C514   1.384       .  A
C514        C515   1.409       .  A
C514        N520   1.354       .  A
C515        C516   1.412       .  A
C515        H524   1.082       .  S
C516        C519   1.381       .  A
N517        C518   1.358       .  A
N517        H527   1.046       .  S
C518        C519   1.401       .  A
C519        H525   1.082       .  S
N520        C521   1.359       .  A
N520        H528   1.046       .  S
C521        C522   1.400       .  A
C522        H526   1.082       .  S
C529        C534   1.383       .  A
C529        C530   1.412       .  A
C529        N535   1.346       .  A
C530        C531   1.408       .  A
C530        H541   1.082       .  S
C531        C540   1.391       .  A
C531        C532   1.383       .  A
C532        C533   1.407       .  A
C532        N538   1.342       .  A
C533        C534   1.404       .  A
C533        H542   1.082       .  S
C534        C537   1.387       .  A
N535        C536   1.360       .  A
N535        H545   1.044       .  S
C536        C537   1.396       .  A
C537        H543   1.082       .  S
N538        C539   1.357       .  A
N538        H546   1.045       .  S
C539        C540   1.399       .  A
C540        H544   1.082       .  S
C547        C552   1.386       .  A
C547        C548   1.399   1_655  A
C547        N553   1.344       .  A
C548        C549   1.400       .  A
C548        H559   1.082   1_455  S
C549        C558   1.370       .  A
C549        C550   1.385       .  A
C550        C551   1.403       .  A
C550        N556   1.347       .  A
C551        C552   1.405   1_455  A
C551        H560   1.082       .  S
C552        C555   1.374       .  A
N553        C554   1.352       .  A
N553        H563   1.045       .  S
C554        C555   1.396       .  A
C555        H561   1.083       .  S
N556        C557   1.355       .  A
N556        H564   1.045       .  S
C557        C558   1.394       .  A
C558        H562   1.083       .  S
C565        C570   1.385       .  A
C565        C566   1.402       .  A
C565        N571   1.347       .  A
C566        C567   1.404       .  A
C566        H577   1.082       .  S
C567        C576   1.373       .  A
C567        C568   1.385       .  A
C568        C569   1.404       .  A
C568        N574   1.348       .  A
C569        C570   1.406       .  A
C569        H578   1.082       .  S
C570        C573   1.375       .  A
N571        C572   1.355       .  A
N571        H581   1.046       .  S
C572        C573   1.397       .  A
C573        H579   1.083       .  S
N574        C575   1.356       .  A
N574        H582   1.046       .  S
C575        C576   1.396       .  A
C576        H580   1.083       .  S
C583        C588   1.384       .  A
C583        C584   1.401       .  A
C583        N589   1.340       .  A
C584        C585   1.399   1_556  A
C584        H595   1.083       .  S
C585        C594   1.375       .  A
C585        C586   1.383       .  A
C586        C587   1.417       .  A
C586        N592   1.354       .  A
C587        C588   1.416   1_554  A
C587        H596   1.082       .  S
C588        C591   1.397       .  A
N589        C590   1.354       .  A
N589        H599   1.046       .  S
C590        C591   1.403       .  A
C591        H597   1.082       .  S
N592        C593   1.362       .  A
N592        H600   1.045       .  S
C593        C594   1.393       .  A
C594        H598   1.083       .  S
