geometry optimzed in LAMMPS
_audit_creation_date              2020-12-01 
_audit_creation_method            'lammps2cif' 
_symmetry_space_group_name_H-M    'P1' 
_symmetry_Int_Tables_number       1 
_symmetry_cell_setting            triclinic 
loop_ 
_symmetry_equiv_pos_as_xyz 
  x,y,z 
_cell_length_a                    52.77641495 
_cell_length_b                    52.7024161623914 
_cell_length_c                    32.212914764360924 
_cell_angle_alpha                 89.96387351426876 
_cell_angle_beta                  90.11465043883159 
_cell_angle_gamma                 119.93039987514479 
loop_ 
_atom_site_label 
_atom_site_type_symbol 
_atom_site_fract_x 
_atom_site_fract_y 
_atom_site_fract_z 
_atom_site_charge 
O1          O  0.79171669  0.66641227  0.64690767    -0.71200
O2          O  0.87687199  0.70764504  0.67695953    -0.72200
O3          O  0.84438514  0.68808821  0.60125430    -0.60800
O4          O  0.82434544  0.68595060  0.72272624    -0.69200
O5          O  0.82234681  0.64302926  0.72922287    -0.68800
O6          O  0.84242594  0.64518701  0.60779690    -0.60000
O7          O  0.87493026  0.66472038  0.68357624    -0.72600
O8          O  0.78971330  0.62345741  0.65342938    -0.71300
Cu9        Cu  0.83438085  0.68851847  0.66171701     1.04600
Cu10       Cu  0.83226291  0.64258046  0.66873228     1.04300
C11         C  0.77751072  0.63851089  0.64486691     0.95000
C12         C  0.88909161  0.69262699  0.68558949     0.94100
C13         C  0.84624456  0.66684704  0.58542755     0.86300
C14         C  0.82073861  0.66438292  0.74514827     0.92500
O15         O  0.12381717  0.83325796  0.82044493    -0.71200
O16         O  0.20917871  0.87596009  0.84962019    -0.72200
O17         O  0.17633371  0.86249488  0.77399816    -0.60800
O18         O  0.15661786  0.84661342  0.89596348    -0.69200
O19         O  0.15754841  0.80506229  0.89084615    -0.68800
O20         O  0.17727475  0.82094448  0.76899625    -0.60000
O21         O  0.21013470  0.83438639  0.84454073    -0.72600
O22         O  0.12476558  0.79167949  0.81532726    -0.71300
Cu23       Cu  0.16646426  0.85604748  0.83519155     1.04600
Cu24       Cu  0.16747126  0.81156786  0.82973961     1.04300
C25         C  0.11105146  0.80586166  0.81279531     0.95000
C26         C  0.22289354  0.86178192  0.85222771     0.94100
C27         C  0.17948985  0.84396532  0.75229300     0.86300
C28         C  0.15430221  0.82351799  0.91257525     0.92500
O29         O  0.48984947  0.97711671  0.06362947    -0.71200
O30         O  0.51045644  0.98314026  0.94201228    -0.72200
O31         O  0.54264196  0.00114997  0.01799691    -0.60800
O32         O  0.45758845  0.95898219  0.98745710    -0.69200
O33         O  0.45845106  0.00152436  0.98371431    -0.68800
O34         O  0.54357482  0.04373342  0.01432554    -0.60000
O35         O  0.51135556  0.02567538  0.93830404    -0.72600
O36         O  0.49072616  0.01963653  0.05989301    -0.71300
Cu37       Cu  0.50009591  0.97860244  0.00292000     1.04600
Cu38       Cu  0.50104772  0.02413448  0.99894590     1.04300
C39         C  0.48752122  0.99766889  0.08093530     0.95000
C40         C  0.51374768  0.00515969  0.92102043     0.94100
C41         C  0.55630644  0.02898015  0.02140663     0.86300
C42         C  0.44484916  0.97369451  0.98012053     0.92500
O43         O  0.21210282  0.37373856  0.34243682    -0.71200
O44         O  0.12673065  0.33607723  0.31560415    -0.72200
O45         O  0.16088587  0.35510707  0.38998187    -0.60800
O46         O  0.17808004  0.35470120  0.26800126    -0.69200
O47         O  0.17381577  0.31079629  0.27503204    -0.68800
O48         O  0.15660741  0.31118684  0.39687520    -0.60000
O49         O  0.12247236  0.29213731  0.32257517    -0.72600
O50         O  0.20782382  0.32978662  0.34943825    -0.71300
Cu51       Cu  0.16959422  0.35645284  0.32872521     1.04600
Cu52       Cu  0.16501733  0.30943004  0.33619809     1.04300
C53         C  0.22315039  0.35764398  0.35096693     0.95000
C54         C  0.11135054  0.30821157  0.31434980     0.94100
C55         C  0.15657429  0.33340578  0.41264135     0.86300
C56         C  0.17827973  0.33252938  0.25235078     0.92500
O57         O  0.87455923  0.21087321  0.18590783    -0.71200
O58         O  0.78957286  0.16452046  0.15628895    -0.72200
O59         O  0.82229018  0.17967069  0.23188517    -0.60800
O60         O  0.84181672  0.19564084  0.11033278    -0.69200
O61         O  0.84510563  0.15531836  0.10570747    -0.68800
O62         O  0.82555192  0.13933093  0.22732831    -0.60000
O63         O  0.79278065  0.12412533  0.15164566    -0.72600
O64         O  0.87786612  0.17052909  0.18134130    -0.71300
Cu65       Cu  0.83194398  0.18908802  0.17127231     1.04600
Cu66       Cu  0.83544959  0.14590311  0.16635109     1.04300
C67         C  0.88938262  0.19785361  0.18886511     0.95000
C68         C  0.77801394  0.13721332  0.14865742     0.94100
C69         C  0.82130541  0.15725505  0.24875792     0.86300
C70         C  0.84603317  0.17771704  0.08886092     0.92500
O71         O  0.50984531  0.48733317  0.43406804    -0.71200
O72         O  0.49205598  0.47010518  0.55599075    -0.72200
O73         O  0.45823919  0.45607712  0.48169803    -0.60800
O74         O  0.54373529  0.50117727  0.50857307    -0.69200
O75         O  0.54117697  0.54181408  0.51539280    -0.68800
O76         O  0.45552302  0.49664630  0.48831130    -0.60000
O77         O  0.48940229  0.51068544  0.56252482    -0.72600
O78         O  0.50726213  0.52792959  0.44087020    -0.71300
Cu79       Cu  0.50106542  0.47724929  0.49480375     1.04600
Cu80       Cu  0.49825491  0.52070224  0.50198539     1.04300
C81         C  0.51096352  0.51012769  0.41830548     0.95000
C82         C  0.48829583  0.48794791  0.57840081     0.94100
C83         C  0.44358250  0.46932815  0.48044005     0.86300
C84         C  0.55570936  0.52841714  0.51694530     0.92500
O85         O  0.18155433  0.35962905  0.77126406    -0.71200
O86         O  0.19474343  0.35175832  0.89290415    -0.72200
O87         O  0.21046873  0.33561009  0.81677801    -0.60800
O88         O  0.16577238  0.37585717  0.84763160    -0.69200
O89         O  0.12464719  0.33283778  0.84939567    -0.68800
O90         O  0.16929211  0.29262890  0.81861474    -0.60000
O91         O  0.15362515  0.30879506  0.89470321    -0.72600
O92         O  0.14045185  0.31665923  0.77310518    -0.71300
Cu93       Cu  0.18957195  0.35724614  0.83207196     1.04600
Cu94       Cu  0.14554773  0.31123506  0.83400203     1.04300
C95         C  0.15923239  0.33908242  0.75297421     0.95000
C96         C  0.17609061  0.32919720  0.91291690     0.94100
C97         C  0.19676416  0.30785335  0.81235446     0.86300
C98         C  0.13831871  0.36056814  0.85410691     0.92500
O99         O  0.35338709  0.17783976  0.72759509    -0.71200
O100        O  0.35142401  0.19465095  0.60564272    -0.72200
O101        O  0.33157051  0.20817218  0.68039311    -0.60800
O102        O  0.37324762  0.16435136  0.65291341    -0.69200
O103        O  0.33050307  0.12326084  0.64658134    -0.68800
O104        O  0.28880553  0.16710058  0.67407140    -0.60000
O105        O  0.30872060  0.15360730  0.59929328    -0.72600
O106        O  0.31068093  0.13678701  0.72134545    -0.71300
Cu107      Cu  0.35389699  0.18770103  0.66686205     1.04600
Cu108      Cu  0.30816460  0.14374779  0.66009214     1.04300
C109        C  0.33223357  0.15485805  0.74364346     0.95000
C110        C  0.32996437  0.17653396  0.58325826     0.94100
C111        C  0.30371094  0.19441169  0.68210797     0.86300
C112        C  0.35836882  0.13702987  0.64493742     0.92500
O113        O  0.96046525  0.50439003  0.01066534    -0.71200
O114        O  0.99949342  0.45791071  0.98349922    -0.72200
O115        O  0.98066735  0.47272916  0.05791789    -0.60800
O116        O  0.97931325  0.48961113  0.93596061    -0.69200
O117        O  0.02276453  0.52978824  0.94203886    -0.68800
O118        O  0.02412538  0.51289732  0.06414033    -0.60000
O119        O  0.04299241  0.49811070  0.98967518    -0.72600
O120        O  0.00393747  0.54461683  0.01686491    -0.71300
Cu121      Cu  0.97846178  0.47976278  0.99675207     1.04600
Cu122      Cu  0.02499089  0.52277808  0.00336133     1.04300
C123        C  0.97609543  0.53162882  0.01879208     0.95000
C124        C  0.02733854  0.47080021  0.98203435     0.94100
C125        C  0.00245490  0.49035378  0.08019865     0.86300
C126        C  0.00095737  0.51211707  0.91978989     0.92500
O127        O  0.62555462  0.83476474  0.34823744    -0.73000
O128        O  0.66745840  0.79133875  0.31860761    -0.72200
O129        O  0.64776539  0.80419657  0.39423716    -0.60800
O130        O  0.64529625  0.82184918  0.27277995    -0.69200
O131        O  0.68794052  0.86295774  0.27915942    -0.68800
O132        O  0.69040205  0.84529781  0.40072038    -0.60000
O133        O  0.71014010  0.83246155  0.32508481    -0.72600
O134        O  0.66821458  0.87590729  0.35471750    -0.71300
Cu135      Cu  0.64502177  0.81160372  0.33326595     1.04600
Cu136      Cu  0.69067101  0.85560711  0.34019011     1.04300
C137        C  0.64034326  0.86204939  0.35655729     0.95000
C138        C  0.69531441  0.80522816  0.31644038     0.94100
C139        C  0.66931016  0.82218150  0.41660270     0.86300
C140        C  0.66644289  0.84486525  0.25680058     0.92500
O141        O  0.79221551  0.66704446  0.18299019    -0.71200
O142        O  0.83637266  0.62570718  0.15437035    -0.72200
O143        O  0.82273496  0.64501224  0.22956614    -0.60800
O144        O  0.80594735  0.64770590  0.10764803    -0.69200
O145        O  0.84684024  0.69059287  0.10198325    -0.68800
O146        O  0.86362499  0.68790422  0.22388876    -0.60000
O147        O  0.87728451  0.66865135  0.14868038    -0.72600
O148        O  0.83314345  0.70996137  0.17727181    -0.71300
Cu149      Cu  0.81286909  0.64486843  0.16885145     1.04600
Cu150      Cu  0.85664628  0.69078894  0.16275061     1.04300
C151        C  0.80586302  0.69494350  0.18518750     0.95000
C152        C  0.86366118  0.64075873  0.14653759     0.94100
C153        C  0.84565580  0.66613844  0.24587709     0.86300
C154        C  0.82403204  0.66936956  0.08559477     0.92500
O155        O  0.50046912  0.95695495  0.49020373    -0.71200
O156        O  0.45632094  0.99824764  0.51854675    -0.72200
O157        O  0.46974394  0.97850190  0.44342537    -0.60800
O158        O  0.48716167  0.97691433  0.56531301    -0.69200
O159        O  0.52795899  0.01980580  0.55873002    -0.68800
O160        O  0.51052862  0.02142888  0.43708552    -0.60000
O161        O  0.49713421  0.04120944  0.51212575    -0.72600
O162        O  0.54129343  0.99988469  0.48365843    -0.71300
Cu163      Cu  0.47698911  0.97613872  0.50460722     1.04600
Cu164      Cu  0.52066089  0.02208158  0.49766822     1.04300
C165        C  0.52766602  0.97197472  0.48178050     0.95000
C166        C  0.46992341  0.02614408  0.52045894     0.94100
C167        C  0.48768102  0.00005346  0.42107318     0.86300
C168        C  0.51002525  0.99836798  0.58121394     0.92500
O169        O  0.37589270  0.20885110  0.15092216    -0.71200
O170        O  0.33431958  0.12373343  0.18170233    -0.72200
O171        O  0.35349770  0.15589786  0.10563463    -0.60800
O172        O  0.35673019  0.17667064  0.22698880    -0.69200
O173        O  0.31400246  0.17503039  0.22097057    -0.68800
O174        O  0.31078915  0.15430039  0.09961063    -0.60000
O175        O  0.29159921  0.12217883  0.17556698    -0.72600
O176        O  0.33310363  0.20716358  0.14491739    -0.71300
Cu177      Cu  0.35662044  0.16634930  0.16653378     1.04600
Cu178      Cu  0.31088216  0.16461386  0.16004828     1.04300
C179        C  0.36093630  0.22116349  0.14244858     0.95000
C180        C  0.30647014  0.10979450  0.18407348     0.94100
C181        C  0.33182432  0.15228914  0.08349578     0.86300
C182        C  0.33566904  0.17863012  0.24312086     0.92500
O183        O  0.54292747  0.54092026  0.98264984    -0.71200
O184        O  0.49745340  0.45551999  0.01049034    -0.72200
O185        O  0.51286645  0.48887356  0.93561862    -0.60800
O186        O  0.52749618  0.50771538  0.05767114    -0.69200
O187        O  0.48676882  0.51021410  0.06150384    -0.68800
O188        O  0.47213163  0.49136336  0.93949976    -0.60000
O189        O  0.45667325  0.45797335  0.01439477    -0.72600
O190        O  0.50216263  0.54341577  0.98651755    -0.71300
Cu191      Cu  0.52161190  0.49815186  0.99649635     1.04600
Cu192      Cu  0.47799601  0.50082147  0.00064413     1.04300
C193        C  0.52954328  0.55538565  0.97956911     0.95000
C194        C  0.47003819  0.44346525  0.01720277     0.94100
C195        C  0.49045896  0.48762671  0.91835264     0.86300
C196        C  0.50926560  0.51165455  0.07875619     0.92500
O197        O  0.15539889  0.84279221  0.39712597    -0.71200
O198        O  0.13582607  0.82315252  0.27578558    -0.72200
O199        O  0.12483807  0.79031069  0.35095559    -0.60800
O200        O  0.16637892  0.87568952  0.32210212    -0.69200
O201        O  0.20772130  0.87479013  0.31365427    -0.68800
O202        O  0.16617543  0.78939925  0.34251783    -0.60000
O203        O  0.17714381  0.82227359  0.26740854    -0.72600
O204        O  0.19672158  0.84191792  0.38876587    -0.71300
Cu205      Cu  0.14415952  0.83301375  0.33678919     1.04600
Cu206      Cu  0.18839322  0.83206829  0.32776428     1.04300
C207        C  0.17885605  0.84497744  0.41207422     0.95000
C208        C  0.15367136  0.82006370  0.25247288     0.94100
C209        C  0.13910526  0.77664220  0.35193074     0.86300
C210        C  0.19347034  0.88847877  0.31281839     0.92500
O211        O  0.04222366  0.54227499  0.48769975    -0.71200
O212        O  0.00002266  0.45702585  0.51726858    -0.72200
O213        O  0.01927374  0.48955572  0.44174503    -0.60800
O214        O  0.02293020  0.50973965  0.56333523    -0.69200
O215        O  0.98043018  0.50863156  0.55777264    -0.68800
O216        O  0.97677214  0.48845762  0.43620014    -0.60000
O217        O  0.95749416  0.45593764  0.51166038    -0.72600
O218        O  0.99969075  0.54117337  0.48210920    -0.71300
Cu219      Cu  0.02260913  0.49969192  0.50272641     1.04600
Cu220      Cu  0.97710257  0.49851124  0.49674527     1.04300
C221        C  0.02753066  0.55492760  0.47966085     0.95000
C222        C  0.97217790  0.44325741  0.51955042     0.94100
C223        C  0.99761321  0.48623144  0.41984357     0.86300
C224        C  0.00208195  0.51195506  0.57970699     0.92500
O225        O  0.83247348  0.12401995  0.68062841    -0.71200
O226        O  0.87370652  0.20941677  0.65266480    -0.72200
O227        O  0.86031238  0.17633755  0.72767783    -0.60800
O228        O  0.84582504  0.15717899  0.60571385    -0.69200
O229        O  0.80376856  0.15708300  0.61014898    -0.68800
O230        O  0.81828107  0.17629110  0.73207509    -0.60000
O231        O  0.83166583  0.20942211  0.65700181    -0.72600
O232        O  0.79037693  0.12389718  0.68510223    -0.71300
Cu233      Cu  0.85455340  0.16673944  0.66653475     1.04600
Cu234      Cu  0.80953374  0.16666431  0.67126281     1.04300
C235        C  0.80505051  0.11069380  0.68773162     0.95000
C236        C  0.85907679  0.22263801  0.64974291     0.94100
C237        C  0.84137682  0.17894375  0.74905821     0.86300
C238        C  0.82275134  0.15458300  0.58873491     0.92500
O239        O  0.64777956  0.84336001  0.89406989    -0.71200
O240        O  0.64425748  0.82345294  0.77224074    -0.72200
O241        O  0.62412530  0.79078237  0.84752600    -0.60800
O242        O  0.66791020  0.87609935  0.81848746    -0.69200
O243        O  0.70998905  0.87629469  0.82438405    -0.68800
O244        O  0.66625911  0.79107786  0.85339922    -0.60000
O245        O  0.68630854  0.82367376  0.77820495    -0.72600
O246        O  0.68983251  0.84357433  0.89984516    -0.71300
Cu247      Cu  0.64454001  0.83344263  0.83289381     1.04600
Cu248      Cu  0.68957241  0.83368137  0.83919911     1.04300
C249        C  0.66913732  0.84607427  0.91616705     0.95000
C250        C  0.66489433  0.82076219  0.75609246     0.94100
C251        C  0.63841870  0.77769340  0.85540803     0.86300
C252        C  0.69574488  0.88937102  0.81609796     0.92500
C253        C  0.73815866  0.97188928  0.76878777     0.18700
C254        C  0.73217161  0.97508389  0.72731192    -0.10400
C255        C  0.74583549  0.00278171  0.70885674    -0.11200
C256        C  0.76554649  0.02735058  0.73184311     0.20300
C257        C  0.77170231  0.02411184  0.77320313    -0.13300
C258        C  0.75804150  0.99642748  0.79165170    -0.11500
C259        C  0.77908174  0.05599349  0.71347191     0.01300
C260        C  0.79068742  0.08062977  0.70023857    -0.31600
C261        C  0.72373785  0.94345598  0.78784220     0.02600
C262        C  0.71118142  0.91914262  0.80225212    -0.33200
H263        H  0.71683553  0.95619617  0.70934373     0.13700
H264        H  0.74091787  0.00506746  0.67687055     0.13500
H265        H  0.78691698  0.04301554  0.79124975     0.13400
H266        H  0.76284253  0.99417445  0.82370761     0.12400
C267        C  0.90072269  0.30530133  0.60318173     0.18700
C268        C  0.93067780  0.31855950  0.59464895    -0.10400
C269        C  0.94508489  0.34594634  0.57536530    -0.11200
C270        C  0.92955915  0.36011508  0.56446541     0.20300
C271        C  0.89957784  0.34680408  0.57284285    -0.13300
C272        C  0.88516885  0.31941337  0.59212830    -0.11500
C273        C  0.94455070  0.38871584  0.54599422     0.01300
C274        C  0.95717168  0.41328848  0.53251485    -0.31600
C275        C  0.88586310  0.27692134  0.62232632     0.02600
C276        C  0.87354553  0.25252977  0.63645925    -0.33200
H277        H  0.94285833  0.30773580  0.60289991     0.13700
H278        H  0.96830991  0.35612421  0.56914746     0.13500
H279        H  0.88741094  0.35765386  0.56466043     0.13400
H280        H  0.86195517  0.30925669  0.59841722     0.12400
C281        C  0.09802924  0.69351983  0.39731251     0.18700
C282        C  0.06743521  0.67741616  0.39852376    -0.10400
C283        C  0.05323202  0.64974277  0.41702058    -0.11200
C284        C  0.06958361  0.63810579  0.43446692     0.20300
C285        C  0.10018435  0.65421380  0.43328958    -0.13300
C286        C  0.11439275  0.68189803  0.41478844    -0.11500
C287        C  0.05494220  0.60938676  0.45268588     0.01300
C288        C  0.04249973  0.58483765  0.46631769    -0.31600
C289        C  0.11258767  0.72221029  0.37899576     0.02600
C290        C  0.12467698  0.74672973  0.36524972    -0.33200
H291        H  0.05458328  0.68627027  0.38523254     0.13700
H292        H  0.02956109  0.63741776  0.41764909     0.13500
H293        H  0.11302931  0.64535224  0.44658273     0.13400
H294        H  0.13806342  0.69422903  0.41415592     0.12400
C295        C  0.59738649  0.69429332  0.89911685     0.18700
C296        C  0.58980060  0.69063853  0.94122883    -0.10400
C297        C  0.57688558  0.66280557  0.95911778    -0.11200
C298        C  0.57155633  0.63856501  0.93495003     0.20300
C299        C  0.57918666  0.64221563  0.89283861    -0.13300
C300        C  0.59210938  0.67006273  0.87494140    -0.11500
C301        C  0.55769853  0.60985674  0.95304346     0.01300
C302        C  0.54529331  0.58531307  0.96659266    -0.31600
C303        C  0.61099342  0.72301211  0.88108980     0.02600
C304        C  0.62307724  0.74766934  0.86797072    -0.33200
H305        H  0.59388107  0.70928491  0.96018283     0.13700
H306        H  0.57098712  0.66017184  0.99169045     0.13500
H307        H  0.57507009  0.62355819  0.87388300     0.13400
H308        H  0.59798104  0.67270325  0.84235691     0.12400
C309        C  0.23489468  0.97189619  0.26859419     0.18700
C310        C  0.26486480  0.99038952  0.27547086    -0.10400
C311        C  0.27943663  0.01797933  0.25676547    -0.11200
C312        C  0.26409464  0.02714195  0.23103902     0.20300
C313        C  0.23408706  0.00871440  0.22432725    -0.13300
C314        C  0.21951083  0.98111538  0.24303649    -0.11500
C315        C  0.27906447  0.05563616  0.21217493     0.01300
C316        C  0.29164728  0.08001535  0.19796889    -0.31600
C317        C  0.22015481  0.94312301  0.28662831     0.02600
C318        C  0.20796441  0.91848600  0.29993939    -0.33200
H319        H  0.27697748  0.98341432  0.29507897     0.13700
H320        H  0.30262058  0.03212334  0.26228710     0.13500
H321        H  0.22199959  0.01565978  0.20461089     0.13400
H322        H  0.19634616  0.96693012  0.23741154     0.12400
C323        C  0.42762528  0.35948213  0.05909210     0.18700
C324        C  0.39832647  0.34607522  0.07150004    -0.10400
C325        C  0.38502390  0.31831812  0.08976131    -0.11200
C326        C  0.40101278  0.30392132  0.09575318     0.20300
C327        C  0.43025421  0.31725250  0.08309556    -0.13300
C328        C  0.44355269  0.34500160  0.06483680    -0.11500
C329        C  0.38731146  0.27532932  0.11434630     0.01300
C330        C  0.37553145  0.25093467  0.12851062    -0.31600
C331        C  0.44167652  0.38848583  0.04183949     0.02600
C332        C  0.45419452  0.41331747  0.02929984    -0.33200
H333        H  0.38584884  0.35715360  0.06731649     0.13700
H334        H  0.36236907  0.30813922  0.09929461     0.13500
H335        H  0.44277730  0.30623685  0.08744999     0.13400
H336        H  0.46624721  0.35523337  0.05547843     0.12400
C337        C  0.66632339  0.81093660  0.63012385     0.18700
C338        C  0.69275984  0.82865469  0.60939297    -0.10400
C339        C  0.69379754  0.82895335  0.56591008    -0.11200
C340        C  0.66840850  0.81152908  0.54269906     0.20300
C341        C  0.64208973  0.79330550  0.56343009    -0.13300
C342        C  0.64105099  0.79300843  0.60695296    -0.11500
C343        C  0.66906561  0.81361941  0.49783076     0.01300
C344        C  0.66942367  0.81681038  0.46055372    -0.31600
C345        C  0.66495785  0.81233552  0.67490728     0.02600
C346        C  0.66445969  0.81522098  0.71213922    -0.33200
H347        H  0.71246105  0.84268098  0.62682861     0.13700
H348        H  0.71427572  0.84321791  0.55039103     0.13500
H349        H  0.62225794  0.77977616  0.54595931     0.13400
H350        H  0.62044177  0.77924227  0.62248642     0.12400
C351        C  0.66927078  0.85353934  0.04278462     0.18700
C352        C  0.67744549  0.83592389  0.06518382    -0.10400
C353        C  0.67685002  0.83570350  0.10865777    -0.11200
C354        C  0.66805838  0.85308310  0.13029351     0.20300
C355        C  0.65999275  0.87084214  0.10796203    -0.13300
C356        C  0.66059011  0.87106395  0.06437249    -0.11500
C357        C  0.66705574  0.85219695  0.17524691     0.01300
C358        C  0.66652634  0.84981263  0.21268664    -0.31600
C359        C  0.66940590  0.85306311  0.99779820     0.02600
C360        C  0.66944282  0.85096361  0.96034274    -0.33200
H361        H  0.68414760  0.82221842  0.04901684     0.13700
H362        H  0.68311738  0.82184209  0.12541665     0.13500
H363        H  0.65311839  0.88438102  0.12420066     0.13400
H364        H  0.65415371  0.88476079  0.04754340     0.12400
C365        C  0.73638444  0.76378182  0.26864535     0.18700
C366        C  0.72138442  0.73328018  0.26403854    -0.10400
C367        C  0.73502681  0.71946715  0.24484707    -0.11200
C368        C  0.76370205  0.73610451  0.23008928     0.20300
C369        C  0.77865736  0.76662141  0.23452488    -0.13300
C370        C  0.76501369  0.78043520  0.25371673    -0.11500
C371        C  0.77807535  0.72179187  0.21165083     0.01300
C372        C  0.79050478  0.70961479  0.19814903    -0.31600
C373        C  0.72223319  0.77802987  0.28794999     0.02600
C374        C  0.71011687  0.79023137  0.30245988    -0.33200
H375        H  0.69918973  0.72020202  0.27531256     0.13700
H376        H  0.72329731  0.69584229  0.24171042     0.13500
H377        H  0.80088131  0.77969242  0.22335554     0.13400
H378        H  0.77677094  0.80405377  0.25695839     0.12400
C379        C  0.56988114  0.93104908  0.43628430     0.18700
C380        C  0.55467359  0.90070473  0.42989358    -0.10400
C381        C  0.56878432  0.88703107  0.41168344    -0.11200
C382        C  0.59813561  0.90365476  0.39971118     0.20300
C383        C  0.61328889  0.93401876  0.40589402    -0.13300
C384        C  0.59917917  0.94769054  0.42410254    -0.11500
C385        C  0.61291281  0.88945136  0.38224587     0.01300
C386        C  0.62541562  0.87719477  0.36932381    -0.31600
C387        C  0.55532114  0.94518233  0.45465471     0.02600
C388        C  0.54292055  0.95729307  0.46846711    -0.33200
H389        H  0.53196620  0.88764477  0.43903320     0.13700
H390        H  0.55688133  0.86351668  0.40714120     0.13500
H391        H  0.63601549  0.94707230  0.39685009     0.13400
H392        H  0.61110187  0.97119542  0.42873873     0.12400
C393        C  0.00159502  0.52175774  0.79342306     0.18700
C394        C  0.02822527  0.53569891  0.77189888    -0.10400
C395        C  0.02855032  0.53578115  0.72835871    -0.11200
C396        C  0.00224968  0.52192390  0.70591127     0.20300
C397        C  0.97561183  0.50845724  0.72743299    -0.13300
C398        C  0.97528661  0.50837497  0.77096646    -0.11500
C399        C  0.00259040  0.52027420  0.66103321     0.01300
C400        C  0.00260602  0.51739983  0.62372551    -0.31600
C401        C  0.00128535  0.51995956  0.83832921     0.02600
C402        C  0.00106160  0.51713262  0.87567892    -0.33200
H403        H  0.04874499  0.54605879  0.78876152     0.13700
H404        H  0.04931523  0.54620168  0.71222244     0.13500
H405        H  0.95510180  0.49757313  0.71057593     0.13400
H406        H  0.95453075  0.49743033  0.78709987     0.12400
C407        C  0.99724601  0.47737337  0.29361579     0.18700
C408        C  0.97611800  0.48020393  0.27085864    -0.10400
C409        C  0.97719444  0.48117073  0.22741409    -0.11200
C410        C  0.99941523  0.47932738  0.20626064     0.20300
C411        C  0.02030084  0.47601520  0.22895578    -0.13300
C412        C  0.01922372  0.47504885  0.27247663    -0.11500
C413        C  0.00122225  0.48190938  0.16149431     0.01300
C414        C  0.00218629  0.48520150  0.12422648    -0.31600
C415        C  0.99707198  0.47831755  0.33850979     0.02600
C416        C  0.99710234  0.48087217  0.37585269    -0.33200
H417        H  0.95907543  0.48213942  0.28672459     0.13700
H418        H  0.96093953  0.48379797  0.21033558     0.13500
H419        H  0.03763906  0.47461751  0.21306582     0.13400
H420        H  0.03577316  0.47296006  0.28962618     0.12400
C421        C  0.93560570  0.57401444  0.06480941     0.18700
C422        C  0.92841915  0.56966472  0.10707588    -0.10400
C423        C  0.91405156  0.58300862  0.12546791    -0.11200
C424        C  0.90683836  0.60074685  0.10164409     0.20300
C425        C  0.91406630  0.60512328  0.05940339    -0.13300
C426        C  0.92842782  0.59178278  0.04101726    -0.11500
C427        C  0.89186123  0.61435825  0.12022624     0.01300
C428        C  0.87909840  0.62617304  0.13372656    -0.31600
C429        C  0.95015179  0.56004937  0.04596792     0.02600
C430        C  0.96213675  0.54759053  0.03197554    -0.33200
H431        H  0.93386229  0.55593216  0.12573113     0.13700
H432        H  0.90852811  0.57945974  0.15815479     0.13500
H433        H  0.90854724  0.61878194  0.04071129     0.13400
H434        H  0.93386838  0.59526232  0.00830141     0.12400
C435        C  0.33207218  0.14307748  0.95723960     0.18700
C436        C  0.35848548  0.15903655  0.93563277    -0.10400
C437        C  0.35867827  0.15963790  0.89210954    -0.11200
C438        C  0.33246081  0.14429077  0.86974409     0.20300
C439        C  0.30611094  0.12786016  0.89133009    -0.13300
C440        C  0.30591821  0.12725841  0.93486749    -0.11500
C441        C  0.33245883  0.14653907  0.82490921     0.01300
C442        C  0.33242357  0.14966639  0.78765010    -0.31600
C443        C  0.33166390  0.14423929  0.00215813     0.02600
C444        C  0.33152113  0.14687312  0.03949997    -0.33200
H445        H  0.37886817  0.17146244  0.95243293     0.13700
H446        H  0.37920857  0.17250200  0.87592708     0.13500
H447        H  0.28565592  0.11594704  0.87453663     0.13400
H448        H  0.28531596  0.11490630  0.95107468     0.12400
C449        C  0.33293691  0.18667144  0.45688566     0.18700
C450        C  0.31084338  0.18748865  0.43362815    -0.10400
C451        C  0.31199422  0.18803069  0.39008548    -0.11200
C452        C  0.33525414  0.18777322  0.36942142     0.20300
C453        C  0.35754427  0.18740894  0.39272382    -0.13300
C454        C  0.35639527  0.18686787  0.43619996    -0.11500
C455        C  0.33569762  0.18655685  0.32449689     0.01300
C456        C  0.33591842  0.18396434  0.28714772    -0.31600
C457        C  0.33113796  0.18449793  0.50175286     0.02600
C458        C  0.33018857  0.18150275  0.53911553    -0.33200
H459        H  0.29253153  0.18727673  0.44911083     0.13700
H460        H  0.29454065  0.18820717  0.37255437     0.13500
H461        H  0.37560386  0.18709515  0.37727083     0.13400
H462        H  0.37359881  0.18616614  0.45367837     0.12400
C463        C  0.42763594  0.06700168  0.56556662     0.18700
C464        C  0.42353010  0.08714008  0.54236225    -0.10400
C465        C  0.40966448  0.10113464  0.56025017    -0.11200
C466        C  0.39988451  0.09505519  0.60139436     0.20300
C467        C  0.40399270  0.07492458  0.62462797    -0.13300
C468        C  0.41786571  0.06092391  0.60673257    -0.11500
C469        C  0.38544796  0.10935778  0.61944267     0.01300
C470        C  0.37316819  0.12174979  0.63254662    -0.31600
C471        C  0.44211632  0.05277514  0.54737388     0.02600
C472        C  0.45459612  0.04073729  0.53367280    -0.33200
H473        H  0.43105273  0.09201991  0.51054101     0.13700
H474        H  0.40654866  0.11666627  0.54202187     0.13500
H475        H  0.39647601  0.07006335  0.65645513     0.13400
H476        H  0.42099646  0.04540209  0.62495948     0.12400
C477        C  0.09523659  0.39960494  0.90261866     0.18700
C478        C  0.10548250  0.41440223  0.94046123    -0.10400
C479        C  0.09129575  0.42785326  0.95906556    -0.11200
C480        C  0.06680566  0.42648641  0.93989260     0.20300
C481        C  0.05640810  0.41144770  0.90227166    -0.13300
C482        C  0.07058947  0.39801156  0.88367484    -0.11500
C483        C  0.05291259  0.44136939  0.95780950     0.01300
C484        C  0.04124907  0.45450974  0.97035962    -0.31600
C485        C  0.11003953  0.38609124  0.88330074     0.02600
C486        C  0.12275976  0.37462900  0.86851238    -0.33200
H487        H  0.12450455  0.41568500  0.95539687     0.13700
H488        H  0.09955340  0.43951617  0.98811475     0.13500
H489        H  0.03752837  0.41035679  0.88715423     0.13400
H490        H  0.06246628  0.38655759  0.85445455     0.12400
C491        C  0.23805382  0.26658204  0.76566701     0.18700
C492        C  0.25698275  0.27942277  0.73197869    -0.10400
C493        C  0.26973353  0.26474916  0.71284730    -0.11200
C494        C  0.26352176  0.23717927  0.72732002     0.20300
C495        C  0.24457842  0.22433851  0.76099391    -0.13300
C496        C  0.23183287  0.23900942  0.78012123    -0.11500
C497        C  0.27712583  0.22234023  0.70844102     0.01300
C498        C  0.28899839  0.20970150  0.69479677    -0.31600
C499        C  0.22443209  0.28136819  0.78462834     0.02600
C500        C  0.21226241  0.29357995  0.79871854    -0.33200
H501        H  0.26181582  0.30070921  0.72048702     0.13700
H502        H  0.28444619  0.27489001  0.68690981     0.13500
H503        H  0.23973552  0.20305024  0.77249009     0.13400
H504        H  0.21711683  0.22886323  0.80605701     0.12400
C505        C  0.48342052  0.48005015  0.79196443     0.18700
C506        C  0.45669932  0.46508521  0.77066019    -0.10400
C507        C  0.45612978  0.46506207  0.72712041    -0.11200
C508        C  0.48228111  0.48001396  0.70464523     0.20300
C509        C  0.50895324  0.49487266  0.72599689    -0.13300
C510        C  0.50952142  0.49489721  0.76943140    -0.11500
C511        C  0.48201832  0.48072649  0.65980231     0.01300
C512        C  0.48375441  0.48300878  0.62242245    -0.31600
C513        C  0.48425582  0.48078243  0.83682213     0.02600
C514        C  0.48634567  0.48290986  0.87421106    -0.33200
H515        H  0.43634283  0.45359342  0.78767296     0.13700
H516        H  0.43534325  0.45354882  0.71103238     0.13500
H517        H  0.52932195  0.50658760  0.70904963     0.13400
H518        H  0.53031891  0.50663559  0.78545307     0.12400
C519        C  0.51924401  0.52082235  0.29224245     0.18700
C520        C  0.53446131  0.51002417  0.26947224    -0.10400
C521        C  0.53406256  0.51035847  0.22598568    -0.11200
C522        C  0.51844258  0.52149353  0.20487175     0.20300
C523        C  0.50368092  0.53281723  0.22762956    -0.13300
C524        C  0.50408105  0.53248386  0.27114117    -0.11500
C525        C  0.51640788  0.51993421  0.16006317     0.01300
C526        C  0.51370446  0.51703126  0.12277855    -0.31600
C527        C  0.51800234  0.51859533  0.33703852     0.02600
C528        C  0.51564216  0.51538003  0.37430080    -0.33200
H529        H  0.54619297  0.50085951  0.28532172     0.13700
H530        H  0.54549265  0.50144627  0.20883801     0.13500
H531        H  0.49143699  0.54140877  0.21176165     0.13400
H532        H  0.49213848  0.54082429  0.28830161     0.12400
C533        C  0.85164483  0.18615717  0.96259958     0.18700
C534        C  0.82489515  0.17623824  0.94203142    -0.10400
C535        C  0.82385691  0.17675402  0.89862812    -0.11200
C536        C  0.84956464  0.18720831  0.87534115     0.20300
C537        C  0.87639619  0.19741235  0.89587840    -0.13300
C538        C  0.87743699  0.19689693  0.93937259    -0.11500
C539        C  0.84809258  0.18637550  0.83049446     0.01300
C540        C  0.84565287  0.18400423  0.79314264    -0.31600
C541        C  0.85226227  0.18467028  0.00738647     0.02600
C542        C  0.85070827  0.18218685  0.04476538    -0.33200
H543        H  0.80478234  0.16784325  0.95955466     0.13700
H544        H  0.80295707  0.16870055  0.88321299     0.13500
H545        H  0.89643660  0.20546149  0.87828428     0.13400
H546        H  0.89826723  0.20460448  0.95483049     0.12400
C547        C  0.81507381  0.14837771  0.46235833     0.18700
C548        C  0.80139755  0.12213008  0.43974077    -0.10400
C549        C  0.80080195  0.12272484  0.39621832    -0.11200
C550        C  0.81385853  0.14956870  0.37505754     0.20300
C551        C  0.82734254  0.17576213  0.39773623    -0.13300
C552        C  0.82793941  0.17516897  0.44115637    -0.11500
C553        C  0.81428534  0.15047936  0.33018840     0.01300
C554        C  0.81638514  0.15274183  0.29281263    -0.31600
C555        C  0.81635513  0.14811705  0.50718620     0.02600
C556        C  0.81862187  0.14986851  0.54458842    -0.33200
H557        H  0.79137899  0.10125646  0.45570128     0.13700
H558        H  0.79037864  0.10230018  0.37910000     0.13500
H559        H  0.83760420  0.19666500  0.38183022     0.13400
H560        H  0.83860547  0.19562368  0.45820187     0.12400
C561        C  0.15075292  0.33639225  0.53907152     0.18700
C562        C  0.14939407  0.31328938  0.56242669    -0.10400
C563        C  0.15012286  0.31460038  0.60587276    -0.11200
C564        C  0.15222835  0.33903132  0.62643261     0.20300
C565        C  0.15341951  0.36209247  0.60311232    -0.13300
C566        C  0.15269023  0.36077920  0.55959552    -0.11500
C567        C  0.15379686  0.34051142  0.67130387     0.01300
C568        C  0.15579081  0.34060815  0.70875533    -0.31600
C569        C  0.15109264  0.33536665  0.49418951     0.02600
C570        C  0.15263586  0.33437572  0.45679566    -0.33200
H571        H  0.14802737  0.29436392  0.54704163     0.13700
H572        H  0.14927622  0.29665113  0.62343487     0.13500
H573        H  0.15513876  0.38115823  0.61853039     0.13400
H574        H  0.15388910  0.37886538  0.54197838     0.12400
C575        C  0.18390988  0.32619174  0.03896215     0.18700
C576        C  0.16053168  0.30460122  0.06192442    -0.10400
C577        C  0.16109599  0.30563673  0.10539059    -0.11200
C578        C  0.18503482  0.32827600  0.12630339     0.20300
C579        C  0.20868633  0.34955512  0.10337124    -0.13300
C580        C  0.20812261  0.34851639  0.05986713    -0.11500
C581        C  0.18462371  0.33025738  0.17106489     0.01300
C582        C  0.18269885  0.33162792  0.20832950    -0.31600
C583        C  0.18231036  0.32629332  0.99413730     0.02600
C584        C  0.17999023  0.32714997  0.95686027    -0.33200
H585        H  0.14162730  0.28727628  0.04622555     0.13700
H586        H  0.14263117  0.28907487  0.12267210     0.13500
H587        H  0.22731117  0.36721738  0.11907589     0.13400
H588        H  0.22630667  0.36541113  0.04254363     0.12400
C589        C  0.02807413  0.26913938  0.27036939     0.18700
C590        C  0.00477550  0.26938614  0.29071987    -0.10400
C591        C  0.97697829  0.25565097  0.27258541    -0.11200
C592        C  0.97242985  0.24167307  0.23405539     0.20300
C593        C  0.99575088  0.24150313  0.21368379    -0.13300
C594        C  0.02352646  0.25522736  0.23180423    -0.11500
C595        C  0.94371223  0.22695193  0.21592910     0.01300
C596        C  0.91921374  0.21398845  0.20224361    -0.31600
C597        C  0.05670823  0.28317017  0.28875659     0.02600
C598        C  0.08132167  0.29472042  0.30200617    -0.33200
H599        H  0.00808582  0.28010766  0.32054452     0.13700
H600        H  0.95902782  0.25581264  0.28864730     0.13500
H601        H  0.99243008  0.23067338  0.18394471     0.13400
H602        H  0.04143890  0.25494384  0.21581070     0.12400
C603        C  0.36003167  0.42457728  0.43774715     0.18700
C604        C  0.33792948  0.42983621  0.45155884    -0.10400
C605        C  0.31052143  0.41581042  0.43232524    -0.11200
C606        C  0.30517061  0.39654258  0.39919846     0.20300
C607        C  0.32715673  0.39101440  0.38571933    -0.13300
C608        C  0.35456102  0.40503370  0.40495769    -0.11500
C609        C  0.27709918  0.38253005  0.37918632     0.01300
C610        C  0.25291823  0.37107434  0.36444111    -0.31600
C611        C  0.38868213  0.44004292  0.45594719     0.02600
C612        C  0.41341072  0.45337494  0.46868745    -0.33200
H613        H  0.34197955  0.44497339  0.47682883     0.13700
H614        H  0.29358633  0.42013856  0.44304870     0.13500
H615        H  0.32318344  0.37607215  0.36021061     0.13400
H616        H  0.37156917  0.40089359  0.39399993     0.12400
C617        C  0.52041684  0.00135601  0.70749201     0.18700
C618        C  0.50312232  0.97627001  0.73127388    -0.10400
C619        C  0.50397821  0.97781778  0.77470665    -0.11200
C620        C  0.52212416  0.00446531  0.79483315     0.20300
C621        C  0.53973978  0.02951255  0.77109490    -0.13300
C622        C  0.53888566  0.02796154  0.72759045    -0.11500
C623        C  0.52161673  0.00612847  0.83965033     0.01300
C624        C  0.51918974  0.00634522  0.87699004    -0.31600
C625        C  0.51822836  0.99996947  0.66264994     0.02600
C626        C  0.51512689  0.99888838  0.62532032    -0.33200
H627        H  0.48865686  0.95559086  0.71623830     0.13700
H628        H  0.49016156  0.95830423  0.79259947     0.13500
H629        H  0.55380186  0.05029199  0.78617219     0.13400
H630        H  0.55230039  0.04757263  0.70965046     0.12400
C631        C  0.47824215  0.99726223  0.20723087     0.18700
C632        C  0.49249615  0.02411264  0.22835119    -0.10400
C633        C  0.49258929  0.02485111  0.27185846    -0.11200
C634        C  0.47842211  0.99874448  0.29468484     0.20300
C635        C  0.46381856  0.97190745  0.27356768    -0.13300
C636        C  0.46372708  0.97116836  0.23004301    -0.11500
C637        C  0.48000867  0.99942765  0.33959194     0.01300
C638        C  0.48267292  0.99986439  0.37697418    -0.31600
C639        C  0.47955984  0.99651686  0.16236873     0.02600
C640        C  0.48218836  0.99654840  0.12502412    -0.33200
H641        H  0.50390219  0.04446037  0.21119675     0.13700
H642        H  0.50407917  0.04575483  0.28768996     0.13500
H643        H  0.45287805  0.95153728  0.29074462     0.13400
H644        H  0.45270346  0.95024080  0.21421237     0.12400
C645        C  0.69509093  0.09522802  0.10280930     0.18700
C646        C  0.68938854  0.07871720  0.06637607    -0.10400
C647        C  0.66164862  0.06582316  0.04812152    -0.11200
C648        C  0.63954962  0.06945581  0.06620979     0.20300
C649        C  0.64528338  0.08601896  0.10258629    -0.13300
C650        C  0.67300953  0.09890453  0.12083371    -0.11500
C651        C  0.61082170  0.05573735  0.04806258     0.01300
C652        C  0.58623202  0.04380109  0.03461955    -0.31600
C653        C  0.72375516  0.10893218  0.12113942     0.02600
C654        C  0.74821442  0.12126876  0.13504581    -0.33200
H655        H  0.70637903  0.07585439  0.05208907     0.13700
H656        H  0.65741436  0.05300158  0.02003719     0.13500
H657        H  0.62830695  0.08890502  0.11687093     0.13400
H658        H  0.67724089  0.11173896  0.14890568     0.12400
C659        C  0.18975798  0.85330245  0.53833039     0.18700
C660        C  0.19335615  0.83220983  0.56000413    -0.10400
C661        C  0.19326948  0.83188812  0.60353855    -0.11200
C662        C  0.18958641  0.85265487  0.62589572     0.20300
C663        C  0.18650109  0.87407466  0.60423735    -0.13300
C664        C  0.18658901  0.87439704  0.56067186    -0.11500
C665        C  0.18770828  0.85113611  0.67082340     0.01300
C666        C  0.18479840  0.84860232  0.70817980    -0.31600
C667        C  0.18784234  0.85232482  0.49339661     0.02600
C668        C  0.18465760  0.84997385  0.45605759    -0.33200
H669        H  0.19572211  0.81568967  0.54325068     0.13700
H670        H  0.19559099  0.81513926  0.61975346     0.13500
H671        H  0.18354670  0.89022721  0.62100183     0.13400
H672        H  0.18368119  0.89077847  0.54442990     0.12400
C673        C  0.14257478  0.81179368  0.12624281     0.18700
C674        C  0.13690404  0.83168263  0.10498555    -0.10400
C675        C  0.13716789  0.83244186  0.06146207    -0.11200
C676        C  0.14310537  0.81332280  0.03870571     0.20300
C677        C  0.14815715  0.79299617  0.05993457    -0.13300
C678        C  0.14789295  0.79223632  0.10348708    -0.11500
C679        C  0.14539409  0.81556044  0.99384847     0.01300
C680        C  0.14867623  0.81861137  0.95658833    -0.31600
C681        C  0.14454195  0.81262953  0.17117445     0.02600
C682        C  0.14781292  0.81499573  0.20850301    -0.33200
H683        H  0.13285034  0.84700642  0.12206133     0.13700
H684        H  0.13329038  0.84832274  0.04557931     0.13500
H685        H  0.15284677  0.77811409  0.04285442     0.13400
H686        H  0.15240525  0.77679600  0.11940178     0.12400
C687        C  0.30617345  0.90342036  0.89732932     0.18700
C688        C  0.30953689  0.89976688  0.93970212    -0.10400
C689        C  0.33734560  0.91394275  0.95782913    -0.11200
C690        C  0.36192518  0.93186025  0.93365093     0.20300
C691        C  0.35857407  0.93548572  0.89125906    -0.13300
C692        C  0.33075791  0.92130718  0.87312738    -0.11500
C693        C  0.39058853  0.94642730  0.95217013     0.01300
C694        C  0.41503592  0.95878621  0.96622833    -0.31600
C695        C  0.27745867  0.88899241  0.87896082     0.02600
C696        C  0.25287701  0.87670737  0.86537619    -0.33200
H697        H  0.29065120  0.88599344  0.95873094     0.13700
H698        H  0.33968042  0.91095688  0.99060113     0.13500
H699        H  0.37746120  0.94928049  0.87224512     0.13400
H700        H  0.32841543  0.92431105  0.84036441     0.12400
C701        C  0.81456935  0.66868939  0.95909658     0.18700
C702        C  0.79386373  0.64336937  0.93822305    -0.10400
C703        C  0.79321605  0.64242844  0.89467002    -0.11200
C704        C  0.81326869  0.66679755  0.87156336     0.20300
C705        C  0.83368349  0.69224224  0.89245287    -0.13300
C706        C  0.83433085  0.69318217  0.93596553    -0.11500
C707        C  0.81379907  0.66539549  0.82663982     0.01300
C708        C  0.81587630  0.66461472  0.78925391    -0.31600
C709        C  0.81640069  0.66918792  0.00404059     0.02600
C710        C  0.81916871  0.66947465  0.04143073    -0.33200
H711        H  0.77850404  0.62421514  0.95559902     0.13700
H712        H  0.77736771  0.62256485  0.87904553     0.13500
H713        H  0.84939619  0.71122481  0.87510499     0.13400
H714        H  0.85053149  0.71287346  0.95156776     0.12400
C715        C  0.85635467  0.66576141  0.37194334     0.18700
C716        C  0.84187496  0.63944460  0.39426429    -0.10400
C717        C  0.84212456  0.63972820  0.43780065    -0.11200
C718        C  0.85685627  0.66633194  0.45946167     0.20300
C719        C  0.87194996  0.69259662  0.43714270    -0.13300
C720        C  0.87170059  0.69231292  0.39359877    -0.11500
C721        C  0.85504563  0.66677492  0.50431758     0.01300
C722        C  0.85192382  0.66698317  0.54154676    -0.31600
C723        C  0.85410644  0.66564107  0.32708959     0.02600
C724        C  0.85089811  0.66570972  0.28984242    -0.33200
H725        H  0.82986352  0.61875222  0.37803063     0.13700
H726        H  0.83029464  0.61924958  0.45455323     0.13500
H727        H  0.88337664  0.71334067  0.45338214     0.13400
H728        H  0.88294548  0.71284316  0.37684243     0.12400
C729        C  0.63885887  0.57044469  0.56221864     0.18700
C730        C  0.64248350  0.58029524  0.60338263    -0.10400
C731        C  0.67023072  0.59387769  0.62170419    -0.11200
C732        C  0.69445606  0.59763292  0.59896344     0.20300
C733        C  0.69081653  0.58773356  0.55782140    -0.13300
C734        C  0.66307082  0.57415269  0.53950148    -0.11500
C735        C  0.72309855  0.61181704  0.61754013     0.01300
C736        C  0.74760802  0.62389032  0.63137394    -0.31600
C737        C  0.61023340  0.55627003  0.54362792     0.02600
C738        C  0.58570234  0.54393618  0.52990564    -0.33200
H739        H  0.62389212  0.57746140  0.62125590     0.13700
H740        H  0.67279541  0.60146443  0.65354983     0.13500
H741        H  0.70939912  0.59053948  0.53995646     0.13400
H742        H  0.66049891  0.56654040  0.50766706     0.12400
C743        C  0.02773384  0.76391226  0.76804001     0.18700
C744        C  0.02407599  0.76889363  0.72628782    -0.10400
C745        C  0.99630326  0.75433238  0.70810110    -0.11200
C746        C  0.97207042  0.73470223  0.73159889     0.20300
C747        C  0.97570809  0.72978468  0.77339032    -0.13300
C748        C  0.00348677  0.74434740  0.79158042    -0.11500
C749        C  0.94343150  0.71981150  0.71308474     0.01300
C750        C  0.91895357  0.70734591  0.69917923    -0.31600
C751        C  0.05644597  0.77856417  0.78635052     0.02600
C752        C  0.08105041  0.79093127  0.79981047    -0.33200
H753        H  0.04270884  0.78396846  0.70777983     0.13700
H754        H  0.99372686  0.75835051  0.67579997     0.13500
H755        H  0.95707605  0.71468588  0.79188056     0.13400
H756        H  0.00607139  0.74030733  0.82386807     0.12400
loop_ 
_geom_bond_atom_site_label_1 
_geom_bond_atom_site_label_2 
_geom_bond_distance 
_geom_bond_site_symmetry_2 
_ccdc_geom_bond_type 
O1           Cu9   2.008       .  S
O1           C11   1.276       .  A
O2           Cu9   2.007       .  S
O2           C12   1.276       .  A
O3           Cu9   2.022       .  S
O3           C13   1.278       .  A
O4           Cu9   2.023       .  S
O4           C14   1.278       .  A
O5          Cu10   2.022       .  S
O5           C14   1.278       .  A
O6          Cu10   2.022       .  S
O6           C13   1.278       .  A
O7          Cu10   2.009       .  S
O7           C12   1.276       .  A
O8          Cu10   2.010       .  S
O8           C11   1.276       .  A
Cu9         Cu10   2.378       .  S
C11         C736   1.434       .  S
C12         C750   1.433       .  S
C13         C722   1.445       .  S
C14         C708   1.445       .  S
O15         Cu23   2.008       .  S
O15          C25   1.276       .  A
O16         Cu23   2.009       .  S
O16          C26   1.276       .  A
O17         Cu23   2.025       .  S
O17          C27   1.278       .  A
O18         Cu23   2.024       .  S
O18          C28   1.278       .  A
O19         Cu24   2.023       .  S
O19          C28   1.278       .  A
O20         Cu24   2.022       .  S
O20          C27   1.278       .  A
O21         Cu24   2.009       .  S
O21          C26   1.276       .  A
O22         Cu24   2.008       .  S
O22          C25   1.276       .  A
Cu23        Cu24   2.378       .  S
C25         C752   1.434       .  S
C26         C696   1.435       .  S
C27         C666   1.446       .  S
C28         C680   1.446       .  S
O29         Cu37   2.021       .  S
O29          C39   1.278       .  A
O30         Cu37   2.020   1_556  S
O30          C40   1.278   1_565  A
O31         Cu37   2.006   1_545  S
O31          C41   1.276       .  A
O32         Cu37   2.008   1_556  S
O32          C42   1.276       .  A
O33         Cu38   2.009       .  S
O33          C42   1.276   1_545  A
O34         Cu38   2.008   1_554  S
O34          C41   1.276       .  A
O35         Cu38   2.020       .  S
O35          C40   1.278       .  A
O36         Cu38   2.020   1_554  S
O36          C39   1.278   1_545  A
Cu37        Cu38   2.378   1_564  S
C39         C640   1.444       .  S
C40         C624   1.443       .  S
C41         C652   1.433       .  S
C42         C694   1.434       .  S
O43         Cu51   2.004       .  S
O43          C53   1.276       .  A
O44         Cu51   2.005       .  S
O44          C54   1.276       .  A
O45         Cu51   2.020       .  S
O45          C55   1.278       .  A
O46         Cu51   2.020       .  S
O46          C56   1.278       .  A
O47         Cu52   2.018       .  S
O47          C56   1.277       .  A
O48         Cu52   2.018       .  S
O48          C55   1.277       .  A
O49         Cu52   2.005       .  S
O49          C54   1.276       .  A
O50         Cu52   2.004       .  S
O50          C53   1.276       .  A
Cu51        Cu52   2.379       .  S
C53         C610   1.430       .  S
C54         C598   1.431       .  S
C55         C570   1.442       .  S
C56         C582   1.442       .  S
O57         Cu65   2.005       .  S
O57          C67   1.276       .  A
O58         Cu65   2.004       .  S
O58          C68   1.276       .  A
O59         Cu65   2.017       .  S
O59          C69   1.277       .  A
O60         Cu65   2.017       .  S
O60          C70   1.277       .  A
O61         Cu66   2.018       .  S
O61          C70   1.278       .  A
O62         Cu66   2.018       .  S
O62          C69   1.277       .  A
O63         Cu66   2.008       .  S
O63          C68   1.276       .  A
O64         Cu66   2.007       .  S
O64          C67   1.276       .  A
Cu65        Cu66   2.379       .  S
C67         C596   1.432       .  S
C68         C654   1.432       .  S
C69         C554   1.441       .  S
C70         C542   1.441       .  S
O71         Cu79   2.020       .  S
O71          C81   1.278       .  A
O72         Cu79   2.019       .  S
O72          C82   1.278       .  A
O73         Cu79   2.003       .  S
O73          C83   1.275       .  A
O74         Cu79   2.005       .  S
O74          C84   1.276       .  A
O75         Cu80   2.009       .  S
O75          C84   1.276       .  A
O76         Cu80   2.008       .  S
O76          C83   1.276       .  A
O77         Cu80   2.014       .  S
O77          C82   1.277       .  A
O78         Cu80   2.017       .  S
O78          C81   1.277       .  A
Cu79        Cu80   2.379       .  S
C81         C528   1.442       .  S
C82         C512   1.440       .  S
C83         C612   1.431       .  S
C84         C738   1.433       .  S
O85         Cu93   2.020       .  S
O85          C95   1.278       .  A
O86         Cu93   2.018       .  S
O86          C96   1.277       .  A
O87         Cu93   2.004       .  S
O87          C97   1.276       .  A
O88         Cu93   2.006       .  S
O88          C98   1.276       .  A
O89         Cu94   2.004       .  S
O89          C98   1.276       .  A
O90         Cu94   2.002       .  S
O90          C97   1.275       .  A
O91         Cu94   2.018       .  S
O91          C96   1.277       .  A
O92         Cu94   2.019       .  S
O92          C95   1.278       .  A
Cu93        Cu94   2.379       .  S
C95         C568   1.443       .  S
C96         C584   1.442       .  S
C97         C500   1.430       .  S
C98         C486   1.431       .  S
O99        Cu107   2.021       .  S
O99         C109   1.278       .  A
O100       Cu107   2.021       .  S
O100        C110   1.278       .  A
O101       Cu107   2.003       .  S
O101        C111   1.276       .  A
O102       Cu107   2.004       .  S
O102        C112   1.276       .  A
O103       Cu108   2.004       .  S
O103        C112   1.276       .  A
O104       Cu108   2.005       .  S
O104        C111   1.276       .  A
O105       Cu108   2.022       .  S
O105        C110   1.278       .  A
O106       Cu108   2.023       .  S
O106        C109   1.278       .  A
Cu107      Cu108   2.379       .  S
C109        C442   1.445       .  S
C110        C458   1.445       .  S
C111        C498   1.430       .  S
C112        C470   1.431       .  S
O113       Cu121   2.005   1_554  S
O113        C123   1.276       .  A
O114       Cu121   2.005       .  S
O114        C124   1.276   1_655  A
O115       Cu121   2.019   1_554  S
O115        C125   1.277   1_655  A
O116       Cu121   2.020       .  S
O116        C126   1.278   1_655  A
O117       Cu122   2.023   1_556  S
O117        C126   1.278       .  A
O118       Cu122   2.020       .  S
O118        C125   1.278       .  A
O119       Cu122   2.005   1_556  S
O119        C124   1.276       .  A
O120       Cu122   2.007       .  S
O120        C123   1.276   1_455  A
Cu121      Cu122   2.379   1_656  S
C123        C430   1.432       .  S
C124        C484   1.431       .  S
C125        C414   1.443       .  S
C126        C402   1.445       .  S
O127       Cu135   2.008       .  S
O127        C137   1.276       .  A
O128       Cu135   2.008       .  S
O128        C138   1.276       .  A
O129       Cu135   2.021       .  S
O129        C139   1.278       .  A
O130       Cu135   2.020       .  S
O130        C140   1.278       .  A
O131       Cu136   2.022       .  S
O131        C140   1.278       .  A
O132       Cu136   2.022       .  S
O132        C139   1.278       .  A
O133       Cu136   2.008       .  S
O133        C138   1.276       .  A
O134       Cu136   2.009       .  S
O134        C137   1.276       .  A
Cu135      Cu136   2.378       .  S
C137        C386   1.434       .  S
C138        C374   1.434       .  S
C139        C344   1.444       .  S
C140        C358   1.444       .  S
O141       Cu149   2.009       .  S
O141        C151   1.276       .  A
O142       Cu149   2.007       .  S
O142        C152   1.276       .  A
O143       Cu149   2.022       .  S
O143        C153   1.278       .  A
O144       Cu149   2.023       .  S
O144        C154   1.278       .  A
O145       Cu150   2.022       .  S
O145        C154   1.278       .  A
O146       Cu150   2.022       .  S
O146        C153   1.278       .  A
O147       Cu150   2.006       .  S
O147        C152   1.276       .  A
O148       Cu150   2.008       .  S
O148        C151   1.276       .  A
Cu149      Cu150   2.378       .  S
C151        C372   1.434       .  S
C152        C428   1.432       .  S
C153        C724   1.445       .  S
C154        C710   1.446       .  S
O155       Cu163   2.007       .  S
O155        C165   1.276       .  A
O156       Cu163   2.005       .  S
O156        C166   1.276   1_565  A
O157       Cu163   2.022       .  S
O157        C167   1.278   1_565  A
O158       Cu163   2.022       .  S
O158        C168   1.278       .  A
O159       Cu164   2.019       .  S
O159        C168   1.277   1_545  A
O160       Cu164   2.018       .  S
O160        C167   1.277       .  A
O161       Cu164   2.007       .  S
O161        C166   1.276       .  A
O162       Cu164   2.008   1_565  S
O162        C165   1.276       .  A
Cu163      Cu164   2.379   1_565  S
C165        C388   1.433       .  S
C166        C472   1.432       .  S
C167        C638   1.444   1_545  S
C168        C626   1.443       .  S
O169       Cu177   2.008       .  S
O169        C179   1.276       .  A
O170       Cu177   2.008       .  S
O170        C180   1.276       .  A
O171       Cu177   2.022       .  S
O171        C181   1.278       .  A
O172       Cu177   2.022       .  S
O172        C182   1.278       .  A
O173       Cu178   2.022       .  S
O173        C182   1.278       .  A
O174       Cu178   2.021       .  S
O174        C181   1.278       .  A
O175       Cu178   2.004       .  S
O175        C180   1.276       .  A
O176       Cu178   2.005       .  S
O176        C179   1.276       .  A
Cu177      Cu178   2.378       .  S
C179        C330   1.432       .  S
C180        C316   1.432       .  S
C181        C444   1.444       .  S
C182        C456   1.445       .  S
O183       Cu191   2.004       .  S
O183        C193   1.276       .  A
O184       Cu191   2.005   1_554  S
O184        C194   1.276       .  A
O185       Cu191   2.017       .  S
O185        C195   1.278       .  A
O186       Cu191   2.019   1_554  S
O186        C196   1.278       .  A
O187       Cu192   2.018       .  S
O187        C196   1.277       .  A
O188       Cu192   2.017   1_556  S
O188        C195   1.277       .  A
O189       Cu192   2.007       .  S
O189        C194   1.276       .  A
O190       Cu192   2.004   1_556  S
O190        C193   1.276       .  A
Cu191      Cu192   2.379   1_556  S
C193        C302   1.430       .  S
C194        C332   1.432       .  S
C195        C514   1.441       .  S
C196        C526   1.442       .  S
O197       Cu205   2.022       .  S
O197        C207   1.278       .  A
O198       Cu205   2.024       .  S
O198        C208   1.278       .  A
O199       Cu205   2.006       .  S
O199        C209   1.276       .  A
O200       Cu205   2.007       .  S
O200        C210   1.276       .  A
O201       Cu206   2.006       .  S
O201        C210   1.276       .  A
O202       Cu206   2.007       .  S
O202        C209   1.276       .  A
O203       Cu206   2.022       .  S
O203        C208   1.278       .  A
O204       Cu206   2.023       .  S
O204        C207   1.278       .  A
Cu205      Cu206   2.378       .  S
C207        C668   1.445       .  S
C208        C682   1.445       .  S
C209        C290   1.432       .  S
C210        C318   1.432       .  S
O211       Cu219   2.006       .  S
O211        C221   1.276       .  A
O212       Cu219   2.006       .  S
O212        C222   1.276   1_455  A
O213       Cu219   2.020       .  S
O213        C223   1.278   1_455  A
O214       Cu219   2.021       .  S
O214        C224   1.278       .  A
O215       Cu220   2.021       .  S
O215        C224   1.278   1_655  A
O216       Cu220   2.019       .  S
O216        C223   1.278       .  A
O217       Cu220   2.005       .  S
O217        C222   1.276       .  A
O218       Cu220   2.006       .  S
O218        C221   1.276   1_655  A
Cu219      Cu220   2.379   1_455  S
C221        C288   1.432       .  S
C222        C274   1.431       .  S
C223        C416   1.443       .  S
C224        C400   1.444       .  S
O225       Cu233   2.004       .  S
O225        C235   1.276       .  A
O226       Cu233   2.003       .  S
O226        C236   1.276       .  A
O227       Cu233   2.018       .  S
O227        C237   1.277       .  A
O228       Cu233   2.018       .  S
O228        C238   1.277       .  A
O229       Cu234   2.017       .  S
O229        C238   1.277       .  A
O230       Cu234   2.018       .  S
O230        C237   1.277       .  A
O231       Cu234   2.007       .  S
O231        C236   1.276       .  A
O232       Cu234   2.007       .  S
O232        C235   1.276       .  A
Cu233      Cu234   2.379       .  S
C235        C260   1.432       .  S
C236        C276   1.431       .  S
C237        C540   1.441       .  S
C238        C556   1.441       .  S
O239       Cu247   2.024       .  S
O239        C249   1.278       .  A
O240       Cu247   2.022       .  S
O240        C250   1.278       .  A
O241       Cu247   2.005       .  S
O241        C251   1.276       .  A
O242       Cu247   2.006       .  S
O242        C252   1.276       .  A
O243       Cu248   2.005       .  S
O243        C252   1.276       .  A
O244       Cu248   2.002       .  S
O244        C251   1.275       .  A
O245       Cu248   2.019       .  S
O245        C250   1.278       .  A
O246       Cu248   2.021       .  S
O246        C249   1.278       .  A
Cu247      Cu248   2.379       .  S
C249        C360   1.445       .  S
C250        C346   1.444       .  S
C251        C304   1.430       .  S
C252        C262   1.432       .  S
C253        C261   1.437       .  S
C253        C254   1.402       .  A
C253        C258   1.400       .  A
C254        C255   1.398   1_565  A
C254        H263   1.084       .  S
C255        C256   1.400       .  A
C255        H264   1.083       .  S
C256        C259   1.437       .  S
C256        C257   1.401       .  A
C257        C258   1.397   1_545  A
C257        H265   1.084       .  S
C258        H266   1.083       .  S
C259        C260   1.204       .  T
C261        C262   1.204       .  T
C267        C275   1.436       .  S
C267        C268   1.401       .  A
C267        C272   1.401       .  A
C268        C269   1.397       .  A
C268        H277   1.084       .  S
C269        C270   1.400       .  A
C269        H278   1.084       .  S
C270        C273   1.436       .  S
C270        C271   1.401       .  A
C271        C272   1.398       .  A
C271        H279   1.084       .  S
C272        H280   1.084       .  S
C273        C274   1.204       .  T
C275        C276   1.204       .  T
C281        C289   1.437       .  S
C281        C282   1.401       .  A
C281        C286   1.401       .  A
C282        C283   1.398       .  A
C282        H291   1.084       .  S
C283        C284   1.401       .  A
C283        H292   1.083       .  S
C284        C287   1.437       .  S
C284        C285   1.401       .  A
C285        C286   1.398       .  A
C285        H293   1.084       .  S
C286        H294   1.083       .  S
C287        C288   1.204       .  T
C289        C290   1.204       .  T
C295        C303   1.435       .  S
C295        C296   1.401       .  A
C295        C300   1.400       .  A
C296        C297   1.397       .  A
C296        H305   1.083       .  S
C297        C298   1.400       .  A
C297        H306   1.084       .  S
C298        C301   1.435       .  S
C298        C299   1.401       .  A
C299        C300   1.398       .  A
C299        H307   1.083       .  S
C300        H308   1.084       .  S
C301        C302   1.203       .  T
C303        C304   1.203       .  T
C309        C317   1.437       .  S
C309        C310   1.400       .  A
C309        C314   1.401       .  A
C310        C311   1.398   1_565  A
C310        H319   1.084       .  S
C311        C312   1.401       .  A
C311        H320   1.083       .  S
C312        C315   1.437       .  S
C312        C313   1.401       .  A
C313        C314   1.398   1_545  A
C313        H321   1.084       .  S
C314        H322   1.083       .  S
C315        C316   1.204       .  T
C317        C318   1.204       .  T
C323        C331   1.437       .  S
C323        C324   1.401       .  A
C323        C328   1.401       .  A
C324        C325   1.398       .  A
C324        H333   1.084       .  S
C325        C326   1.401       .  A
C325        H334   1.083       .  S
C326        C329   1.437       .  S
C326        C327   1.401       .  A
C327        C328   1.398       .  A
C327        H335   1.084       .  S
C328        H336   1.083       .  S
C329        C330   1.204       .  T
C331        C332   1.204       .  T
C337        C345   1.448       .  S
C337        C338   1.403       .  A
C337        C342   1.403       .  A
C338        C339   1.402       .  A
C338        H347   1.084       .  S
C339        C340   1.402       .  A
C339        H348   1.084       .  S
C340        C343   1.449       .  S
C340        C341   1.403       .  A
C341        C342   1.403       .  A
C341        H349   1.084       .  S
C342        H350   1.084       .  S
C343        C344   1.211       .  T
C345        C346   1.211       .  T
C351        C359   1.449   1_554  S
C351        C352   1.402       .  A
C351        C356   1.404       .  A
C352        C353   1.401       .  A
C352        H361   1.084       .  S
C353        C354   1.402       .  A
C353        H362   1.084       .  S
C354        C357   1.449       .  S
C354        C355   1.404       .  A
C355        C356   1.404       .  A
C355        H363   1.083       .  S
C356        H364   1.083       .  S
C357        C358   1.211       .  T
C359        C360   1.212       .  T
C365        C373   1.439       .  S
C365        C366   1.401       .  A
C365        C370   1.401       .  A
C366        C367   1.399       .  A
C366        H375   1.084       .  S
C367        C368   1.401       .  A
C367        H376   1.084       .  S
C368        C371   1.439       .  S
C368        C369   1.401       .  A
C369        C370   1.399       .  A
C369        H377   1.084       .  S
C370        H378   1.084       .  S
C371        C372   1.205       .  T
C373        C374   1.205       .  T
C379        C387   1.438       .  S
C379        C380   1.401       .  A
C379        C384   1.401       .  A
C380        C381   1.399       .  A
C380        H389   1.084       .  S
C381        C382   1.401       .  A
C381        H390   1.084       .  S
C382        C385   1.439       .  S
C382        C383   1.401       .  A
C383        C384   1.398       .  A
C383        H391   1.084       .  S
C384        H392   1.084       .  S
C385        C386   1.205       .  T
C387        C388   1.205       .  T
C393        C401   1.449       .  S
C393        C394   1.403       .  A
C393        C398   1.403   1_455  A
C394        C395   1.403       .  A
C394        H403   1.083       .  S
C395        C396   1.403       .  A
C395        H404   1.084       .  S
C396        C399   1.449       .  S
C396        C397   1.403   1_455  A
C397        C398   1.402       .  A
C397        H405   1.084       .  S
C398        H406   1.084       .  S
C399        C400   1.211       .  T
C401        C402   1.212       .  T
C407        C415   1.447       .  S
C407        C408   1.402       .  A
C407        C412   1.403   1_655  A
C408        C409   1.401       .  A
C408        H417   1.084       .  S
C409        C410   1.402       .  A
C409        H418   1.084       .  S
C410        C413   1.447   1_655  S
C410        C411   1.403   1_655  A
C411        C412   1.403       .  A
C411        H419   1.083       .  S
C412        H420   1.084       .  S
C413        C414   1.210       .  T
C415        C416   1.210       .  T
C421        C429   1.437       .  S
C421        C422   1.402       .  A
C421        C426   1.400       .  A
C422        C423   1.398       .  A
C422        H431   1.083       .  S
C423        C424   1.400       .  A
C423        H432   1.084       .  S
C424        C427   1.437       .  S
C424        C425   1.401       .  A
C425        C426   1.398       .  A
C425        H433   1.083       .  S
C426        H434   1.084       .  S
C427        C428   1.204       .  T
C429        C430   1.204       .  T
C435        C443   1.449   1_556  S
C435        C436   1.403       .  A
C435        C440   1.403       .  A
C436        C437   1.402       .  A
C436        H445   1.084       .  S
C437        C438   1.403       .  A
C437        H446   1.084       .  S
C438        C441   1.449       .  S
C438        C439   1.403       .  A
C439        C440   1.403       .  A
C439        H447   1.084       .  S
C440        H448   1.084       .  S
C441        C442   1.212       .  T
C443        C444   1.211       .  T
C449        C457   1.449       .  S
C449        C450   1.403       .  A
C449        C454   1.403       .  A
C450        C451   1.404       .  A
C450        H459   1.084       .  S
C451        C452   1.404       .  A
C451        H460   1.083       .  S
C452        C455   1.449       .  S
C452        C453   1.402       .  A
C453        C454   1.402       .  A
C453        H461   1.084       .  S
C454        H462   1.084       .  S
C455        C456   1.212       .  T
C457        C458   1.212       .  T
C463        C471   1.437       .  S
C463        C464   1.400       .  A
C463        C468   1.402       .  A
C464        C465   1.397       .  A
C464        H473   1.083       .  S
C465        C466   1.401       .  A
C465        H474   1.084       .  S
C466        C469   1.436       .  S
C466        C467   1.400       .  A
C467        C468   1.398       .  A
C467        H475   1.084       .  S
C468        H476   1.084       .  S
C469        C470   1.204       .  T
C471        C472   1.204       .  T
C477        C485   1.436       .  S
C477        C478   1.402       .  A
C477        C482   1.400       .  A
C478        C479   1.398       .  A
C478        H487   1.084       .  S
C479        C480   1.400       .  A
C479        H488   1.084       .  S
C480        C483   1.436       .  S
C480        C481   1.401       .  A
C481        C482   1.397       .  A
C481        H489   1.084       .  S
C482        H490   1.084       .  S
C483        C484   1.204       .  T
C485        C486   1.204       .  T
C491        C499   1.435       .  S
C491        C492   1.401       .  A
C491        C496   1.400       .  A
C492        C493   1.397       .  A
C492        H501   1.084       .  S
C493        C494   1.400       .  A
C493        H502   1.084       .  S
C494        C497   1.435       .  S
C494        C495   1.401       .  A
C495        C496   1.397       .  A
C495        H503   1.084       .  S
C496        H504   1.084       .  S
C497        C498   1.203       .  T
C499        C500   1.203       .  T
C505        C513   1.446       .  S
C505        C506   1.403       .  A
C505        C510   1.402       .  A
C506        C507   1.403       .  A
C506        H515   1.084       .  S
C507        C508   1.403       .  A
C507        H516   1.084       .  S
C508        C511   1.445       .  S
C508        C509   1.402       .  A
C509        C510   1.399       .  A
C509        H517   1.084       .  S
C510        H518   1.084       .  S
C511        C512   1.209       .  T
C513        C514   1.209       .  T
C519        C527   1.447       .  S
C519        C520   1.402       .  A
C519        C524   1.403       .  A
C520        C521   1.401       .  A
C520        H529   1.084       .  S
C521        C522   1.402       .  A
C521        H530   1.084       .  S
C522        C525   1.447       .  S
C522        C523   1.403       .  A
C523        C524   1.402       .  A
C523        H531   1.084       .  S
C524        H532   1.084       .  S
C525        C526   1.210       .  T
C527        C528   1.210       .  T
C533        C541   1.446   1_556  S
C533        C534   1.402       .  A
C533        C538   1.403       .  A
C534        C535   1.400       .  A
C534        H543   1.084       .  S
C535        C536   1.402       .  A
C535        H544   1.084       .  S
C536        C539   1.446       .  S
C536        C537   1.403       .  A
C537        C538   1.403       .  A
C537        H545   1.084       .  S
C538        H546   1.083       .  S
C539        C540   1.210       .  T
C541        C542   1.210       .  T
C547        C555   1.446       .  S
C547        C548   1.403       .  A
C547        C552   1.402       .  A
C548        C549   1.403       .  A
C548        H557   1.084       .  S
C549        C550   1.403       .  A
C549        H558   1.084       .  S
C550        C553   1.446       .  S
C550        C551   1.402       .  A
C551        C552   1.400       .  A
C551        H559   1.084       .  S
C552        H560   1.084       .  S
C553        C554   1.210       .  T
C555        C556   1.210       .  T
C561        C569   1.447       .  S
C561        C562   1.402       .  A
C561        C566   1.403       .  A
C562        C563   1.401       .  A
C562        H571   1.084       .  S
C563        C564   1.402       .  A
C563        H572   1.084       .  S
C564        C567   1.448       .  S
C564        C565   1.403       .  A
C565        C566   1.403       .  A
C565        H573   1.084       .  S
C566        H574   1.083       .  S
C567        C568   1.211       .  T
C569        C570   1.210       .  T
C575        C583   1.446   1_554  S
C575        C576   1.402       .  A
C575        C580   1.403       .  A
C576        C577   1.401       .  A
C576        H585   1.084       .  S
C577        C578   1.402       .  A
C577        H586   1.084       .  S
C578        C581   1.447       .  S
C578        C579   1.403       .  A
C579        C580   1.402       .  A
C579        H587   1.084       .  S
C580        H588   1.084       .  S
C581        C582   1.210       .  T
C583        C584   1.210       .  T
C589        C597   1.436       .  S
C589        C590   1.400       .  A
C589        C594   1.401       .  A
C590        C591   1.398   1_455  A
C590        H599   1.084       .  S
C591        C592   1.402       .  A
C591        H600   1.084       .  S
C592        C595   1.437       .  S
C592        C593   1.400       .  A
C593        C594   1.397   1_655  A
C593        H601   1.084       .  S
C594        H602   1.084       .  S
C595        C596   1.204       .  T
C597        C598   1.204       .  T
C603        C611   1.436       .  S
C603        C604   1.400       .  A
C603        C608   1.401       .  A
C604        C605   1.397       .  A
C604        H613   1.084       .  S
C605        C606   1.401       .  A
C605        H614   1.084       .  S
C606        C609   1.436       .  S
C606        C607   1.400       .  A
C607        C608   1.397       .  A
C607        H615   1.084       .  S
C608        H616   1.084       .  S
C609        C610   1.203       .  T
C611        C612   1.204       .  T
C617        C625   1.448   1_545  S
C617        C618   1.402   1_545  A
C617        C622   1.404       .  A
C618        C619   1.401       .  A
C618        H627   1.084       .  S
C619        C620   1.402   1_565  A
C619        H628   1.084       .  S
C620        C623   1.448       .  S
C620        C621   1.403       .  A
C621        C622   1.403       .  A
C621        H629   1.084       .  S
C622        H630   1.084       .  S
C623        C624   1.211       .  T
C625        C626   1.211       .  T
C631        C639   1.448       .  S
C631        C632   1.403   1_565  A
C631        C636   1.403       .  A
C632        C633   1.402       .  A
C632        H641   1.084       .  S
C633        C634   1.403   1_545  A
C633        H642   1.084       .  S
C634        C637   1.448       .  S
C634        C635   1.403       .  A
C635        C636   1.403       .  A
C635        H643   1.084       .  S
C636        H644   1.084       .  S
C637        C638   1.211       .  T
C639        C640   1.211       .  T
C645        C653   1.437       .  S
C645        C646   1.401       .  A
C645        C650   1.400       .  A
C646        C647   1.398       .  A
C646        H655   1.084       .  S
C647        C648   1.401       .  A
C647        H656   1.084       .  S
C648        C651   1.437       .  S
C648        C649   1.401       .  A
C649        C650   1.398       .  A
C649        H657   1.084       .  S
C650        H658   1.084       .  S
C651        C652   1.205       .  T
C653        C654   1.204       .  T
C659        C667   1.450       .  S
C659        C660   1.403       .  A
C659        C664   1.403       .  A
C660        C661   1.402       .  A
C660        H669   1.084       .  S
C661        C662   1.403       .  A
C661        H670   1.084       .  S
C662        C665   1.450       .  S
C662        C663   1.403       .  A
C663        C664   1.403       .  A
C663        H671   1.084       .  S
C664        H672   1.083       .  S
C665        C666   1.212       .  T
C667        C668   1.212       .  T
C673        C681   1.450       .  S
C673        C674   1.403       .  A
C673        C678   1.403       .  A
C674        C675   1.402       .  A
C674        H683   1.084       .  S
C675        C676   1.403       .  A
C675        H684   1.084       .  S
C676        C679   1.450   1_554  S
C676        C677   1.403       .  A
C677        C678   1.403       .  A
C677        H685   1.083       .  S
C678        H686   1.084       .  S
C679        C680   1.212       .  T
C681        C682   1.212       .  T
C687        C695   1.439       .  S
C687        C688   1.402       .  A
C687        C692   1.401       .  A
C688        C689   1.399       .  A
C688        H697   1.084       .  S
C689        C690   1.401       .  A
C689        H698   1.083       .  S
C690        C693   1.439       .  S
C690        C691   1.402       .  A
C691        C692   1.399       .  A
C691        H699   1.084       .  S
C692        H700   1.083       .  S
C693        C694   1.206       .  T
C695        C696   1.206       .  T
C701        C709   1.450   1_556  S
C701        C702   1.404       .  A
C701        C706   1.403       .  A
C702        C703   1.404       .  A
C702        H711   1.084       .  S
C703        C704   1.403       .  A
C703        H712   1.084       .  S
C704        C707   1.450       .  S
C704        C705   1.403       .  A
C705        C706   1.402       .  A
C705        H713   1.084       .  S
C706        H714   1.084       .  S
C707        C708   1.212       .  T
C709        C710   1.212       .  T
C715        C723   1.449       .  S
C715        C716   1.403       .  A
C715        C720   1.403       .  A
C716        C717   1.402       .  A
C716        H725   1.084       .  S
C717        C718   1.403       .  A
C717        H726   1.084       .  S
C718        C721   1.449       .  S
C718        C719   1.403       .  A
C719        C720   1.403       .  A
C719        H727   1.084       .  S
C720        H728   1.084       .  S
C721        C722   1.212       .  T
C723        C724   1.212       .  T
C729        C737   1.439       .  S
C729        C730   1.402       .  A
C729        C734   1.400       .  A
C730        C731   1.399       .  A
C730        H739   1.083       .  S
C731        C732   1.401       .  A
C731        H740   1.085       .  S
C732        C735   1.439       .  S
C732        C733   1.402       .  A
C733        C734   1.399       .  A
C733        H741   1.083       .  S
C734        H742   1.085       .  S
C735        C736   1.206       .  T
C737        C738   1.205       .  T
C743        C751   1.439       .  S
C743        C744   1.401       .  A
C743        C748   1.401       .  A
C744        C745   1.398   1_455  A
C744        H753   1.084       .  S
C745        C746   1.401       .  A
C745        H754   1.083       .  S
C746        C749   1.439       .  S
C746        C747   1.402       .  A
C747        C748   1.399   1_655  A
C747        H755   1.084       .  S
C748        H756   1.083       .  S
C749        C750   1.205       .  T
C751        C752   1.205       .  T
