geometry optimzed in LAMMPS
_audit_creation_date              2020-12-01 
_audit_creation_method            'lammps2cif' 
_symmetry_space_group_name_H-M    'P1' 
_symmetry_Int_Tables_number       1 
_symmetry_cell_setting            triclinic 
loop_ 
_symmetry_equiv_pos_as_xyz 
  x,y,z 
_cell_length_a                    84.73818787 
_cell_length_b                    85.00353531595319 
_cell_length_c                    84.98647321880715 
_cell_angle_alpha                 90.12383383348858 
_cell_angle_beta                  90.05376168424671 
_cell_angle_gamma                 89.8931306193359 
loop_ 
_atom_site_label 
_atom_site_type_symbol 
_atom_site_fract_x 
_atom_site_fract_y 
_atom_site_fract_z 
_atom_site_charge 
O1          O  0.86594419  0.56600125  0.99096924    -0.56800
C2          C  0.87732550  0.61130648  0.01262461     0.75900
O3          O  0.82708069  0.59940009  0.00371034    -0.57900
C4          C  0.85400134  0.55697338  0.99159444     0.75800
C5          C  0.85655007  0.57304017  0.03863190     0.78200
Cd6        Cd  0.85380823  0.58712822  0.00802016     1.37500
O7          O  0.87903427  0.60066415  0.00224551    -0.56800
O8          O  0.86489582  0.56948070  0.02685578    -0.55600
C9          C  0.83043836  0.60386561  0.98983992     0.78200
O10         O  0.84603510  0.58355831  0.03660995    -0.58000
O11         O  0.86479461  0.61085653  0.02067649    -0.56400
O12         O  0.84210305  0.56220305  0.99898513    -0.56400
O13         O  0.84413197  0.60060145  0.98488739    -0.55600
O14         O  0.87901739  0.40513146  0.95430145    -0.56800
C15         C  0.85434741  0.44967356  0.96142428     0.75900
O16         O  0.85043629  0.42588418  0.91655606    -0.57900
C17         C  0.87828319  0.39509096  0.94322634     0.75800
C18         C  0.82901941  0.40405633  0.96199860     0.78200
Cd19       Cd  0.85484174  0.41979943  0.94554152     1.37500
O20         O  0.86651286  0.44089701  0.96188154    -0.56800
O21         O  0.84170985  0.40859889  0.96842107    -0.55600
C22         C  0.86202603  0.43541107  0.91597729     0.78200
O23         O  0.82781225  0.40651937  0.94726433    -0.58000
O24         O  0.84213956  0.44402667  0.95489054    -0.56400
O25         O  0.86676789  0.39636339  0.93383879    -0.56400
O26         O  0.86932985  0.43774857  0.92872003    -0.55600
O27         O  0.79149614  0.81400412  0.88587182    -0.56800
C28         C  0.81083436  0.85863749  0.87694441     0.75900
O29         O  0.80497656  0.84467402  0.92710937    -0.57900
C30         C  0.79072040  0.80507527  0.89781841     0.75800
C31         C  0.83786142  0.81887702  0.89396288     0.78200
Cd32       Cd  0.80787838  0.83390128  0.89945081     1.37500
O33         O  0.79992544  0.84850115  0.87558655    -0.56800
O34         O  0.82503916  0.81446725  0.88786691    -0.55600
C35         C  0.79131801  0.85024176  0.92425177     0.78200
O36         O  0.83708093  0.83010239  0.90386521    -0.58000
O37         O  0.82008509  0.85719602  0.88852722    -0.56400
O38         O  0.79691639  0.81004492  0.91047617    -0.56400
O39         O  0.78594299  0.84806794  0.91053880    -0.55600
O40         O  0.74951254  0.65519223  0.87071798    -0.56800
C41         C  0.75811401  0.69925678  0.89489235     0.75900
O42         O  0.71448462  0.67518332  0.90178208    -0.57900
C43         C  0.73887613  0.64482887  0.87240786     0.75800
C44         C  0.76010864  0.65399618  0.91954277     0.78200
Cd45       Cd  0.74268781  0.66945794  0.89518609     1.37500
O46         O  0.75911192  0.69012925  0.88306210    -0.56800
O47         O  0.76581487  0.65749101  0.90625112    -0.55600
C48         C  0.71309566  0.68438253  0.89004289     0.78200
O49         O  0.74573887  0.65762244  0.92197990    -0.58000
O50         O  0.75107219  0.69405562  0.90695373    -0.56400
O51         O  0.73054442  0.64564675  0.88473201    -0.56400
O52         O  0.72513380  0.68646465  0.88158518    -0.55600
O53         O  0.66981052  0.90315982  0.00431603    -0.56800
C54         C  0.69494456  0.94460599  0.99290773     0.75900
O55         O  0.70078626  0.92088320  0.03912291    -0.57900
C56         C  0.67111948  0.89279192  0.01496927     0.75800
C57         C  0.71953890  0.89962061  0.99381792     0.78200
Cd58       Cd  0.69511038  0.91622096  0.01061629     1.37500
O59         O  0.68281479  0.93583862  0.99312045    -0.56800
O60         O  0.70573173  0.90187971  0.98860878    -0.55600
C61         C  0.69087785  0.93211445  0.04004930     0.78200
O62         O  0.72249650  0.90485643  0.00753747    -0.58000
O63         O  0.70715803  0.93967311  0.99997664    -0.56400
O64         O  0.68348501  0.89319905  0.02330534    -0.56400
O65         O  0.68410150  0.93619481  0.02747987    -0.55600
O66         O  0.68150834  0.05988307  0.96468619    -0.56800
C67         C  0.66870972  0.10444100  0.94664196     0.75900
O68         O  0.71880675  0.09346184  0.95214735    -0.57900
C69         C  0.69312702  0.05066588  0.96254566     0.75800
C70         C  0.68627249  0.06862995  0.91783572     0.78200
Cd71       Cd  0.69247932  0.08087433  0.94853532     1.37500
O72         O  0.66688382  0.09267216  0.95563528    -0.56800
O73         O  0.67864296  0.06504936  0.93004979    -0.55600
C74         C  0.71621314  0.09692938  0.96648980     0.78200
O75         O  0.69778840  0.07809583  0.91951218    -0.58000
O76         O  0.68166831  0.10547662  0.93935483    -0.56400
O77         O  0.70474394  0.05581849  0.95470489    -0.56400
O78         O  0.70317765  0.09252160  0.97224690    -0.55600
O79         O  0.79672924  0.15696496  0.07825884    -0.56800
C80         C  0.78616098  0.20116108  0.05480870     0.75900
O81         O  0.83195536  0.17924833  0.04741239    -0.57900
C82         C  0.80724903  0.14651133  0.07611479     0.75800
C83         C  0.78601873  0.15609124  0.03023079     0.78200
Cd84       Cd  0.80376757  0.17229155  0.05423767     1.37500
O85         O  0.78737999  0.19273948  0.06708061    -0.56800
O86         O  0.78087454  0.15936232  0.04381512    -0.55600
C87         C  0.83357783  0.18772923  0.05969246     0.78200
O88         O  0.80002051  0.16051945  0.02705665    -0.58000
O89         O  0.79236471  0.19583566  0.04231538    -0.56400
O90         O  0.81576255  0.14794783  0.06397530    -0.56400
O91         O  0.82172392  0.18896215  0.06859841    -0.55600
O92         O  0.74477634  0.34965159  0.07860022    -0.56800
C93         C  0.75469674  0.30742328  0.05341795     0.75900
O94         O  0.70869302  0.33339328  0.04926706    -0.57900
C95         C  0.73569074  0.36138922  0.07661620     0.75800
C96         C  0.75542234  0.35281177  0.02858719     0.78200
Cd97       Cd  0.73819259  0.33697935  0.05318706     1.37500
O98         O  0.75580025  0.31686660  0.06497700    -0.56800
O99         O  0.75992123  0.35175056  0.04274581    -0.55600
C100        C  0.70803093  0.32350886  0.06049643     0.78200
O101        O  0.74225245  0.34644014  0.02517711    -0.58000
O102        O  0.74705847  0.31218499  0.04150917    -0.56400
O103        O  0.72841779  0.36214015  0.06361564    -0.56400
O104        O  0.72089110  0.31989355  0.06702374    -0.55600
O105        O  0.83723120  0.41034954  0.24221448    -0.56800
C106        C  0.88193198  0.39972632  0.26320836     0.75900
O107        O  0.86993894  0.44994060  0.25601374    -0.57900
C108        C  0.82909098  0.42277743  0.24042056     0.75800
C109        C  0.84302735  0.41955833  0.28908091     0.78200
Cd110      Cd  0.85786696  0.42312226  0.25871874     1.37500
O111        O  0.87224597  0.39851624  0.25186147    -0.56800
O112        O  0.84008562  0.41116045  0.27717085    -0.55600
C113        C  0.87562834  0.44685902  0.24250600     0.78200
O114        O  0.85291158  0.43064397  0.28721330    -0.58000
O115        O  0.88068612  0.41177337  0.27185590    -0.56400
O116        O  0.83468780  0.43531306  0.24625877    -0.56400
O117        O  0.87300182  0.43327646  0.23700305    -0.55600
O118        O  0.71307454  0.41136490  0.20998712    -0.56800
C119        C  0.66656654  0.40097297  0.19082897     0.75900
O120        O  0.67976305  0.45094817  0.19902902    -0.57900
C121        C  0.72201479  0.42337693  0.20950619     0.75800
C122        C  0.70516761  0.42061290  0.16396022     0.78200
Cd123      Cd  0.69138877  0.42402234  0.19479518     1.37500
O124        O  0.67721584  0.39881980  0.20115887    -0.56800
O125        O  0.71003922  0.41373645  0.17616803    -0.55600
C126        C  0.67586313  0.44803285  0.21317045     0.78200
O127        O  0.69386391  0.43033435  0.16574573    -0.58000
O128        O  0.66744863  0.41350788  0.18291564    -0.56400
O129        O  0.71623514  0.43577582  0.20353504    -0.56400
O130        O  0.67917577  0.43446728  0.21833872    -0.55600
O131        O  0.61973399  0.52457419  0.33196537    -0.56800
C132        C  0.57715181  0.51572929  0.30715270     0.75900
O133        O  0.60035571  0.56114605  0.30111540    -0.57900
C134        C  0.63050693  0.53484989  0.33082317     0.75800
C135        C  0.62156778  0.51659490  0.28211042     0.78200
Cd136      Cd  0.60600108  0.53276516  0.30731720     1.37500
O137        O  0.58515463  0.51695864  0.31973729    -0.56800
O138        O  0.61814859  0.51046990  0.29521560    -0.55600
C139        C  0.58970472  0.56199080  0.31162577     0.78200
O140        O  0.61768763  0.53092089  0.28011938    -0.58000
O141        O  0.58311732  0.52134709  0.29471436    -0.56400
O142        O  0.63002858  0.54366767  0.31886099    -0.56400
O143        O  0.58685046  0.54963279  0.31927540    -0.55600
O144        O  0.42682881  0.47856045  0.32771204    -0.56800
C145        C  0.47007485  0.48713513  0.30412011     0.75900
O146        O  0.44476592  0.44262143  0.29689977    -0.57900
C147        C  0.41606666  0.46830134  0.32615900     0.75800
C148        C  0.42441297  0.48957158  0.27847248     0.78200
Cd149      Cd  0.44024767  0.47157257  0.30280473     1.37500
O150        O  0.46042511  0.48830979  0.31549749    -0.56800
O151        O  0.42730548  0.49469747  0.29215288    -0.55600
C152        C  0.45458135  0.44128609  0.30819026     0.78200
O153        O  0.42881611  0.47554668  0.27551090    -0.58000
O154        O  0.46536972  0.47991796  0.29192390    -0.56400
O155        O  0.41638265  0.45999798  0.31379342    -0.56400
O156        O  0.45765619  0.45361130  0.31587936    -0.55600
O157        O  0.92430485  0.52434088  0.12130469    -0.56800
C158        C  0.96894221  0.51515198  0.14460243     0.75900
O159        O  0.94501671  0.56050304  0.15238217    -0.57900
C160        C  0.91440836  0.53549878  0.12270494     0.75800
C161        C  0.92453430  0.51524934  0.17036976     0.78200
Cd162      Cd  0.93963045  0.53210682  0.14533413     1.37500
O163        O  0.96060539  0.51643828  0.13222793    -0.56800
O164        O  0.92804178  0.50933153  0.15715928    -0.55600
C165        C  0.95517440  0.56187128  0.14145138     0.78200
O166        O  0.92765934  0.52974953  0.17236634    -0.58000
O167        O  0.96319125  0.52070105  0.15720900    -0.56400
O168        O  0.91620501  0.54456891  0.13436032    -0.56400
O169        O  0.95810333  0.54972121  0.13341491    -0.55600
O170        O  0.08510140  0.48588973  0.13187923    -0.56800
C171        C  0.13085178  0.46863343  0.12223090     0.75900
O172        O  0.11661655  0.47305796  0.17275730    -0.57900
C173        C  0.07623240  0.48629279  0.14392510     0.75800
C174        C  0.09147942  0.43964058  0.14144097     0.78200
Cd175      Cd  0.10581263  0.47014829  0.14522345     1.37500
O176        O  0.11905312  0.47762674  0.12028347    -0.56800
O177        O  0.08750974  0.45172612  0.13382836    -0.55600
C178        C  0.11971362  0.48754697  0.17079165     0.78200
O179        O  0.10222522  0.44138775  0.15174811    -0.58000
O180        O  0.13118588  0.46072060  0.13480436    -0.56400
O181        O  0.08159206  0.48026990  0.15646036    -0.56400
O182        O  0.11651274  0.49330952  0.15745320    -0.55600
O183        O  0.36895456  0.60880271  0.19920344    -0.56800
C184        C  0.32537630  0.58457988  0.20693663     0.75900
O185        O  0.35244094  0.57727669  0.16338896    -0.57900
C186        C  0.38006466  0.60698946  0.18934078     0.75800
C187        C  0.37072635  0.56016858  0.21076661     0.78200
Cd188      Cd  0.35547819  0.58403758  0.19206637     1.37500
O189        O  0.33416743  0.59668359  0.20737175    -0.56800
O190        O  0.36724388  0.57371003  0.21592647    -0.55600
C191        C  0.34158514  0.58744439  0.16139184     0.78200
O192        O  0.36707774  0.55723340  0.19653626    -0.58000
O193        O  0.33098822  0.57229241  0.20056243    -0.56400
O194        O  0.37973528  0.59468677  0.18096011    -0.56400
O195        O  0.33734544  0.59521441  0.17333673    -0.55600
O196        O  0.21041865  0.59352831  0.23937365    -0.56800
C197        C  0.16829444  0.60545252  0.25980263     0.75900
O198        O  0.17994409  0.55227937  0.25330844    -0.57900
C199        C  0.21860597  0.58126020  0.23689784     0.75800
C200        C  0.20662960  0.58202774  0.28510234     0.78200
Cd201      Cd  0.19052645  0.57987369  0.25570395     1.37500
O202        O  0.17834623  0.60567361  0.24875837    -0.56800
O203        O  0.21169740  0.58727713  0.27223882    -0.55600
C204        C  0.17274734  0.55551663  0.24060187     0.78200
O205        O  0.19405362  0.57392793  0.28463811    -0.58000
O206        O  0.16844806  0.59349403  0.26862092    -0.56400
O207        O  0.21306629  0.56837053  0.24189121    -0.56400
O208        O  0.17393873  0.56943785  0.23557100    -0.55600
O209        O  0.04867838  0.85630336  0.57083881    -0.56800
C210        C  0.03914263  0.83222148  0.52801063     0.75900
O211        O  0.08583691  0.82655138  0.55394645    -0.57900
C212        C  0.05875096  0.85495696  0.58181990     0.75800
C213        C  0.04034635  0.80572407  0.57206095     0.78200
Cd214      Cd  0.05654508  0.83131780  0.55713538     1.37500
O215        O  0.04044478  0.84443294  0.53657195    -0.56800
O216        O  0.03409937  0.81867314  0.56820881    -0.55600
C217        C  0.08663265  0.83605962  0.54246031     0.78200
O218        O  0.05490043  0.80396445  0.56885964    -0.58000
O219        O  0.04505907  0.81959527  0.53333821    -0.56400
O220        O  0.06719882  0.84270141  0.58158282    -0.56400
O221        O  0.07379323  0.84171384  0.53755437    -0.55600
O222        O  0.00146611  0.85959136  0.37622587    -0.56800
C223        C  0.00795884  0.83384050  0.42126602     0.75900
O224        O  0.96526769  0.82944018  0.39610010    -0.57900
C225        C  0.99126673  0.85770756  0.36539713     0.75800
C226        C  0.01207761  0.81068824  0.37466515     0.78200
Cd227      Cd  0.99407138  0.83499672  0.39043229     1.37500
O228        O  0.01045427  0.84547379  0.41219428    -0.56800
O229        O  0.01787064  0.82372293  0.37899849    -0.55600
C230        C  0.96422689  0.84132446  0.40523670     0.78200
O231        O  0.99752529  0.80847197  0.37765197    -0.58000
O232        O  0.00021756  0.82240070  0.41559156    -0.56400
O233        O  0.98281443  0.84546858  0.36617376    -0.56400
O234        O  0.97643020  0.84971250  0.40674415    -0.55600
O235        O  0.93283118  0.76967271  0.78485627    -0.56800
C236        C  0.92249131  0.78836691  0.83091943     0.75900
O237        O  0.97264633  0.78055643  0.81834993    -0.57900
C238        C  0.94482725  0.76994491  0.77587679     0.75800
C239        C  0.94272900  0.81605414  0.79281219     0.78200
Cd240      Cd  0.94580453  0.78518536  0.80626312     1.37500
O241        O  0.92061239  0.77864045  0.81971157    -0.56800
O242        O  0.93497614  0.80417289  0.78844388    -0.55600
C243        C  0.96921459  0.76654948  0.82231809     0.78200
O244        O  0.95302102  0.81389916  0.80351413    -0.58000
O245        O  0.93500965  0.79643488  0.83071054    -0.56400
O246        O  0.95723393  0.77619147  0.78140346    -0.56400
O247        O  0.95564140  0.76165577  0.81856152    -0.55600
O248        O  0.92329258  0.72561689  0.62660241    -0.56800
C249        C  0.94737443  0.73541717  0.66992541     0.75900
O250        O  0.95633054  0.69077445  0.64612333    -0.57900
C251        C  0.92453335  0.71520422  0.61595192     0.75800
C252        C  0.97214941  0.73514855  0.62386235     0.78200
Cd253      Cd  0.94798201  0.71847820  0.64044719     1.37500
O254        O  0.93510379  0.73430169  0.66141605    -0.56800
O255        O  0.95868097  0.74080486  0.62695003    -0.55600
C256        C  0.94497269  0.68875947  0.65568101     0.78200
O257        O  0.97487932  0.72117335  0.62843312    -0.58000
O258        O  0.95999822  0.72968947  0.66432268    -0.56400
O259        O  0.93662356  0.70646232  0.61651240    -0.56400
O260        O  0.93567779  0.70017585  0.65778764    -0.55600
O261        O  0.04826454  0.64852015  0.87662708    -0.56800
C262        C  0.03909671  0.67109229  0.92126459     0.75900
O263        O  0.08377520  0.67854126  0.89506833    -0.57900
C264        C  0.05930000  0.65043237  0.86670704     0.75800
C265        C  0.03647225  0.69657987  0.87673283     0.78200
Cd266      Cd  0.05476208  0.67264572  0.89171344     1.37500
O267        O  0.03926783  0.65914344  0.91221418    -0.56800
O268        O  0.03162335  0.68264105  0.87856535    -0.55600
C269        C  0.08506238  0.66883507  0.90638436     0.78200
O270        O  0.05017637  0.69980261  0.88194181    -0.58000
O271        O  0.04484165  0.68377046  0.91594605    -0.56400
O272        O  0.06779126  0.66255227  0.86831559    -0.56400
O273        O  0.07259592  0.66212070  0.91085720    -0.55600
O274        O  0.00172309  0.64595126  0.07351609    -0.56800
C275        C  0.01169284  0.66850623  0.02863320     0.75900
O276        O  0.96802650  0.67911327  0.05231545    -0.57900
C277        C  0.99057555  0.64755245  0.08337672     0.75800
C278        C  0.01416589  0.69348830  0.07402944     0.78200
Cd279      Cd  0.99558632  0.66996976  0.05840431     1.37500
O280        O  0.00955602  0.65609419  0.03665323    -0.56800
O281        O  0.01946046  0.68003177  0.07036083    -0.55600
C282        C  0.96573389  0.66751504  0.04308622     0.78200
O283        O  0.99986593  0.69640245  0.07047952    -0.58000
O284        O  0.00736242  0.68136951  0.03484400    -0.56400
O285        O  0.98199874  0.65966417  0.08194628    -0.56400
O286        O  0.97704401  0.65802859  0.04115808    -0.55600
O287        O  0.11873252  0.76895809  0.16140635    -0.56800
C288        C  0.12771913  0.78913946  0.11670250     0.75900
O289        O  0.07821495  0.77941627  0.12977166    -0.57900
C290        C  0.10635433  0.76714269  0.16963228     0.75800
C291        C  0.10852323  0.81267859  0.15759045     0.78200
Cd292      Cd  0.10506715  0.78382566  0.14093962     1.37500
O293        O  0.12958350  0.77800011  0.12646173    -0.56800
O294        O  0.11645660  0.80042613  0.16032802    -0.55600
C295        C  0.08170708  0.76556766  0.12518964     0.78200
O296        O  0.09781541  0.81177034  0.14709352    -0.58000
O297        O  0.11539731  0.79745322  0.11810936    -0.56400
O298        O  0.09336808  0.77170964  0.16379058    -0.56400
O299        O  0.09565682  0.76084682  0.12767495    -0.55600
O300        O  0.13070079  0.72951592  0.31803765    -0.56800
C301        C  0.10573583  0.74054680  0.27647010     0.75900
O302        O  0.09916814  0.69470557  0.30140586    -0.57900
C303        C  0.12918432  0.71887949  0.32839665     0.75800
C304        C  0.08159725  0.74156920  0.32120330     0.78200
Cd305      Cd  0.10533633  0.72351424  0.30507448     1.37500
O306        O  0.11797881  0.74042648  0.28512479    -0.56800
O307        O  0.09595200  0.74552170  0.32031852    -0.55600
C308        C  0.10921989  0.69332241  0.29035748     0.78200
O309        O  0.07777243  0.72859457  0.31477252    -0.58000
O310        O  0.09352916  0.73374219  0.28165881    -0.56400
O311        O  0.11655550  0.71095490  0.32815851    -0.56400
O312        O  0.11610021  0.70571184  0.28599173    -0.55600
O313        O  0.37877283  0.60152914  0.49985962    -0.56800
C314        C  0.35333296  0.55838468  0.48963749     0.75900
O315        O  0.34735674  0.58177470  0.53394976    -0.57900
C316        C  0.37657206  0.61181249  0.51051736     0.75800
C317        C  0.33193721  0.60442671  0.48752157     0.78200
Cd318      Cd  0.35428478  0.58732561  0.50597144     1.37500
O319        O  0.36587448  0.56658868  0.48964910    -0.56800
O320        O  0.34570366  0.60099502  0.48285812    -0.55600
C321        C  0.35830861  0.57157390  0.53531503     0.78200
O322        O  0.32804550  0.59986282  0.50124299    -0.58000
O323        O  0.34121124  0.56418731  0.49620848    -0.56400
O324        O  0.36439328  0.61042046  0.51900181    -0.56400
O325        O  0.36670742  0.56889037  0.52332872    -0.55600
O326        O  0.37698876  0.40992471  0.44739878    -0.56800
C327        C  0.35155061  0.45256067  0.45682727     0.75900
O328        O  0.34467787  0.42662788  0.41255982    -0.57900
C329        C  0.37588546  0.39962441  0.43660577     0.75800
C330        C  0.32869872  0.40539184  0.45908338     0.78200
Cd331      Cd  0.35157477  0.42270458  0.44103940     1.37500
O332        O  0.36360294  0.44365574  0.45701785    -0.56800
O333        O  0.34256711  0.40829703  0.46377295    -0.55600
C334        C  0.35541173  0.43696582  0.41093021     0.78200
O335        O  0.32499385  0.41033656  0.44544023    -0.58000
O336        O  0.33919591  0.44719016  0.45034108    -0.56400
O337        O  0.36353259  0.39990459  0.42823627    -0.56400
O338        O  0.36336115  0.44050534  0.42298183    -0.55600
O339        O  0.17029140  0.90811590  0.50190081    -0.56800
C340        C  0.19371600  0.95270244  0.49380782     0.75900
O341        O  0.20157157  0.92707313  0.53624008    -0.57900
C342        C  0.17254624  0.89755863  0.51223210     0.75800
C343        C  0.21868540  0.90678319  0.48888622     0.78200
Cd344      Cd  0.19480465  0.92222039  0.50780464     1.37500
O345        O  0.18159698  0.94391499  0.49313569    -0.56800
O346        O  0.20524125  0.91079533  0.48370395    -0.55600
C347        C  0.18983316  0.93630871  0.53799623     0.78200
O348        O  0.22158259  0.91005477  0.50322826    -0.58000
O349        O  0.20614913  0.94684271  0.49969410    -0.56400
O350        O  0.18536694  0.89806551  0.51985639    -0.56400
O351        O  0.18129050  0.93877930  0.52608840    -0.55600
O352        O  0.17421752  0.09993661  0.45102848    -0.56800
C353        C  0.19886488  0.05851889  0.46311362     0.75900
O354        O  0.20479240  0.07784835  0.41653590    -0.57900
C355        C  0.17577096  0.10999690  0.44013291     0.75800
C356        C  0.22336146  0.10278543  0.46078043     0.78200
Cd357      Cd  0.19901334  0.08599351  0.44445848     1.37500
O358        O  0.18691249  0.06753687  0.46270923    -0.56800
O359        O  0.20966565  0.10029454  0.46612236    -0.55600
C360        C  0.19314039  0.06839378  0.41637472     0.78200
O361        O  0.22633108  0.09755627  0.44704456    -0.58000
O362        O  0.21111559  0.06286773  0.45577480    -0.56400
O363        O  0.18802666  0.10898006  0.43167968    -0.56400
O364        O  0.18515778  0.06730531  0.42884408    -0.55600
O365        O  0.29680179  0.84988201  0.37078473    -0.56800
C366        C  0.28801704  0.80501598  0.39287508     0.75900
O367        O  0.33182666  0.82822262  0.40291657    -0.57900
C368        C  0.30847176  0.85918711  0.37179562     0.75800
C369        C  0.28701205  0.85193809  0.41928077     0.78200
Cd370      Cd  0.30385933  0.83487741  0.39480580     1.37500
O371        O  0.28828685  0.81409063  0.38103680    -0.56800
O372        O  0.28184916  0.85001829  0.40542876    -0.55600
C373        C  0.33375629  0.81963015  0.39076745     0.78200
O374        O  0.30033668  0.84573694  0.42235433    -0.58000
O375        O  0.29369320  0.81036730  0.40558464    -0.56400
O376        O  0.31757531  0.85740738  0.38348061    -0.56400
O377        O  0.32238332  0.81880612  0.38121621    -0.55600
O378        O  0.26325166  0.68869441  0.37664510    -0.56800
C379        C  0.24328781  0.64363164  0.36765747     0.75900
O380        O  0.24971381  0.65932592  0.41767736    -0.57900
C381        C  0.26364039  0.69745175  0.38878828     0.75800
C382        C  0.21730206  0.68413762  0.38407919     0.78200
Cd383      Cd  0.24680146  0.66867870  0.38977761     1.37500
O384        O  0.25409261  0.65380944  0.36589046    -0.56800
O385        O  0.22988944  0.68721836  0.37680557    -0.55600
C386        C  0.26382518  0.65469278  0.41542489     0.78200
O387        O  0.21809358  0.67381717  0.39488189    -0.58000
O388        O  0.23481188  0.64476333  0.37984763    -0.56400
O389        O  0.25714101  0.69232418  0.40116693    -0.56400
O390        O  0.26931078  0.65622135  0.40167273    -0.55600
O391        O  0.30334290  0.15932165  0.58135152    -0.56800
C392        C  0.29299551  0.20050344  0.55630473     0.75900
O393        O  0.33859172  0.17530303  0.54864311    -0.57900
C394        C  0.31181131  0.14715909  0.57938648     0.75800
C395        C  0.29249147  0.15642879  0.52987414     0.78200
Cd396      Cd  0.30973195  0.17120233  0.55549383     1.37500
O397        O  0.29227770  0.19132911  0.56805311    -0.56800
O398        O  0.28715322  0.15816658  0.54366872    -0.55600
C399        C  0.34044123  0.18543242  0.55952309     0.78200
O400        O  0.30644779  0.16132332  0.52747154    -0.58000
O401        O  0.30045621  0.19559964  0.54436695    -0.56400
O402        O  0.31881120  0.14589136  0.56629757    -0.56400
O403        O  0.32847363  0.18863872  0.56773379    -0.55600
O404        O  0.25101764  0.34605304  0.58276906    -0.56800
C405        C  0.26290221  0.30698982  0.55740385     0.75900
O406        O  0.21607890  0.33285432  0.55088706    -0.57900
C407        C  0.24075786  0.35690684  0.58202962     0.75800
C408        C  0.26260506  0.35310786  0.53209646     0.78200
Cd409      Cd  0.24541392  0.33560424  0.55605619     1.37500
O410        O  0.26173751  0.31573255  0.56948599    -0.56800
O411        O  0.26796015  0.35025610  0.54569678    -0.55600
C412        C  0.21513925  0.31991566  0.55828857     0.78200
O413        O  0.24883978  0.34795671  0.52914249    -0.58000
O414        O  0.25731129  0.31223309  0.54460286    -0.56400
O415        O  0.23327779  0.35820932  0.56922679    -0.56400
O416        O  0.22797844  0.31403182  0.56290989    -0.55600
O417        O  0.49728619  0.65066117  0.57404563    -0.56800
C418        C  0.50718299  0.67175063  0.53048482     0.75900
O419        O  0.46137579  0.68162159  0.55421693    -0.57900
C420        C  0.48577991  0.65171532  0.58352745     0.75800
C421        C  0.50664015  0.69829277  0.57560538     0.78200
Cd422      Cd  0.48967897  0.67419899  0.55904400     1.37500
O423        O  0.50575246  0.65985805  0.53938483    -0.56800
O424        O  0.51140444  0.68429216  0.57400893    -0.55600
C425        C  0.45992615  0.67138520  0.54337886     0.78200
O426        O  0.49343153  0.70172989  0.56935863    -0.58000
O427        O  0.50142325  0.68463484  0.53534259    -0.56400
O428        O  0.47624622  0.66299714  0.58153846    -0.56400
O429        O  0.47188551  0.66308228  0.54026428    -0.55600
O430        O  0.53885188  0.65948158  0.41581043    -0.56800
C431        C  0.56037184  0.64748246  0.37253890     0.75900
O432        O  0.55106392  0.69842147  0.38383034    -0.57900
C433        C  0.53903326  0.67158647  0.42461017     0.75800
C434        C  0.58611817  0.67038101  0.40959687     0.78200
Cd435      Cd  0.55555327  0.67185769  0.39536147     1.37500
O436        O  0.55048190  0.64573983  0.38360005    -0.56800
O437        O  0.57422417  0.66283302  0.41428771    -0.55600
C438        C  0.53745803  0.69493007  0.37861219     0.78200
O439        O  0.58406308  0.67977010  0.39815489    -0.58000
O440        O  0.56774891  0.66038783  0.37206790    -0.56400
O441        O  0.54580534  0.68374421  0.41931003    -0.56400
O442        O  0.53264559  0.68107557  0.38106917    -0.55600
O443        O  0.62694722  0.72489521  0.81967811    -0.56800
C444        C  0.60283500  0.73559197  0.77863017     0.75900
O445        O  0.59774277  0.68879075  0.80576475    -0.57900
C446        C  0.62591747  0.71480357  0.83061107     0.75800
C447        C  0.57651983  0.73516201  0.82321669     0.78200
Cd448      Cd  0.60134698  0.71815384  0.80738120     1.37500
O449        O  0.61498205  0.73451236  0.78735427    -0.56800
O450        O  0.59054502  0.73999847  0.82185124    -0.55600
C451        C  0.60528144  0.68798979  0.79287104     0.78200
O452        O  0.57340335  0.72183255  0.81715662    -0.58000
O453        O  0.59026561  0.72926764  0.78360255    -0.56400
O454        O  0.61343576  0.70668195  0.83104074    -0.56400
O455        O  0.60910590  0.70081664  0.78657390    -0.55600
O456        O  0.62615438  0.77800631  0.63144263    -0.56800
C457        C  0.60173382  0.76870791  0.67320962     0.75900
O458        O  0.59663628  0.81383852  0.64792261    -0.57900
C459        C  0.62463775  0.78806191  0.62052040     0.75800
C460        C  0.57747911  0.76673326  0.62755243     0.78200
Cd461      Cd  0.60103896  0.78468902  0.64401025     1.37500
O462        O  0.61338531  0.76775510  0.66384275    -0.56800
O463        O  0.59139084  0.76191395  0.63004109    -0.55600
C464        C  0.60691555  0.81442827  0.65886065     0.78200
O465        O  0.57401472  0.78040137  0.63266735    -0.58000
O466        O  0.58953091  0.77593232  0.66842491    -0.56400
O467        O  0.61212822  0.79621275  0.62039129    -0.56400
O468        O  0.61302175  0.80156959  0.66304849    -0.55600
O469        O  0.41786202  0.77139909  0.32461551    -0.56800
C470        C  0.44248838  0.76425506  0.28059255     0.75900
O471        O  0.44835022  0.80736280  0.30467746    -0.57900
C472        C  0.41946944  0.78139287  0.33563985     0.75800
C473        C  0.46634422  0.76313926  0.32731403     0.78200
Cd474      Cd  0.44202240  0.77937032  0.31077340     1.37500
O475        O  0.43056654  0.76293058  0.28953552    -0.56800
O476        O  0.45334192  0.75707993  0.32321131    -0.55600
C477        C  0.43546672  0.80918023  0.29716485     0.78200
O478        O  0.46867587  0.77744150  0.32359217    -0.58000
O479        O  0.45441045  0.77132589  0.28615075    -0.56400
O480        O  0.43168942  0.78991889  0.33535887    -0.56400
O481        O  0.42625065  0.79755273  0.29641931    -0.55600
O482        O  0.42909564  0.73817007  0.16435747    -0.56800
C483        C  0.41917279  0.71909846  0.11915666     0.75900
O484        O  0.46907351  0.72670529  0.13299585    -0.57900
C485        C  0.44135166  0.73850214  0.17298421     0.75800
C486        C  0.43900911  0.69230047  0.15855242     0.78200
Cd487      Cd  0.44200234  0.72243319  0.14375423     1.37500
O488        O  0.41736811  0.72937508  0.12986846    -0.56800
O489        O  0.43021545  0.70393844  0.16150396    -0.55600
C490        C  0.46596737  0.74067661  0.12863904     0.78200
O491        O  0.44989046  0.69432338  0.14845180    -0.58000
O492        O  0.43145436  0.71064431  0.11985134    -0.56400
O493        O  0.45384688  0.73242990  0.16749495    -0.56400
O494        O  0.45211637  0.74566442  0.13114098    -0.55600
O495        O  0.49829125  0.85601820  0.87639588    -0.56800
C496        C  0.50867374  0.83238209  0.92019125     0.75900
O497        O  0.46354105  0.82496578  0.89738430    -0.57900
C498        C  0.48870985  0.85366594  0.86514944     0.75800
C499        C  0.50870669  0.80556900  0.87668590     0.78200
Cd500      Cd  0.49184082  0.83137068  0.89078108     1.37500
O501        O  0.50841051  0.84441281  0.91133204    -0.56800
O502        O  0.51474967  0.81874914  0.88012210    -0.55600
C503        C  0.46270302  0.83673099  0.90664586     0.78200
O504        O  0.49411241  0.80382543  0.87972688    -0.58000
O505        O  0.50215333  0.82003955  0.91494208    -0.56400
O506        O  0.48102558  0.84092073  0.86550360    -0.56400
O507        O  0.47491383  0.84504181  0.90812344    -0.55600
O508        O  0.53671924  0.84480595  0.03652231    -0.56800
C509        C  0.55730559  0.85552494  0.08203669     0.75900
O510        O  0.54906431  0.80527327  0.06921800    -0.57900
C511        C  0.53741338  0.83293799  0.02741607     0.75800
C512        C  0.58302407  0.83543416  0.04362633     0.78200
Cd513      Cd  0.55256643  0.83223055  0.05764826     1.37500
O514        O  0.54627566  0.85728506  0.07204013    -0.56800
O515        O  0.57135879  0.84421116  0.04069511    -0.55600
C516        C  0.53504911  0.80813001  0.07373475     0.78200
O517        O  0.58085845  0.82427136  0.05333996    -0.58000
O518        O  0.56547551  0.84311922  0.08085482    -0.56400
O519        O  0.54394718  0.82065954  0.03279730    -0.56400
O520        O  0.52954844  0.82161138  0.07058048    -0.55600
O521        O  0.24908979  0.85254284  0.07839629    -0.56800
C522        C  0.25710060  0.80732308  0.05550640     0.75900
O523        O  0.21447371  0.83304933  0.04657794    -0.57900
C524        C  0.23810025  0.86257371  0.07663130     0.75800
C525        C  0.26199068  0.85223123  0.02982225     0.78200
Cd526      Cd  0.24290419  0.83782614  0.05399739     1.37500
O527        O  0.25870124  0.81684195  0.06697216    -0.56800
O528        O  0.26683636  0.84983120  0.04370750    -0.55600
C529        C  0.21276282  0.82332336  0.05784089     0.78200
O530        O  0.24790049  0.84807653  0.02676917    -0.58000
O531        O  0.25010949  0.81243253  0.04336301    -0.56400
O532        O  0.22973578  0.86133867  0.06434381    -0.56400
O533        O  0.22459925  0.82083140  0.06651661    -0.55600
O534        O  0.30126102  0.65885689  0.07820302    -0.56800
C535        C  0.28758944  0.70097515  0.05544149     0.75900
O536        O  0.33471234  0.67795150  0.04571562    -0.57900
C537        C  0.31229467  0.64890184  0.07638378     0.75800
C538        C  0.28991301  0.65609753  0.02864583     0.78200
Cd539      Cd  0.30645095  0.67300415  0.05307767     1.37500
O540        O  0.28941763  0.69208552  0.06729632    -0.56800
O541        O  0.28505647  0.65759145  0.04263851    -0.55600
C542        C  0.33599556  0.68901398  0.05572122     0.78200
O543        O  0.30292620  0.66271134  0.02532345    -0.58000
O544        O  0.29364154  0.69642267  0.04258434    -0.56400
O545        O  0.32037556  0.65007139  0.06394284    -0.56400
O546        O  0.32372234  0.69281908  0.06319380    -0.55600
O547        O  0.36321227  0.94090280  0.95657640    -0.56800
C548        C  0.37637901  0.89588883  0.93780635     0.75900
O549        O  0.32616899  0.90701882  0.94329112    -0.57900
C550        C  0.35078694  0.94930365  0.95606966     0.75800
C551        C  0.35540696  0.93504100  0.90916537     0.78200
Cd552      Cd  0.35238665  0.92006803  0.93958487     1.37500
O553        O  0.37818121  0.90775009  0.94672686    -0.56800
O554        O  0.36300338  0.93903337  0.92131236    -0.55600
C555        C  0.32898616  0.90399692  0.95768657     0.78200
O556        O  0.34558381  0.92385476  0.91075819    -0.58000
O557        O  0.36373552  0.89533487  0.92991008    -0.56400
O558        O  0.33897406  0.94366250  0.94885719    -0.56400
O559        O  0.34214552  0.90842428  0.96310546    -0.55600
O560        O  0.37728940  0.09727619  0.00066342    -0.56800
C561        C  0.35178474  0.05530956  0.98815881     0.75900
O562        O  0.34391569  0.07914714  0.03416525    -0.57900
C563        C  0.37496755  0.10848077  0.01030414     0.75800
C564        C  0.32758062  0.10092118  0.98901333     0.78200
Cd565      Cd  0.35152488  0.08405294  0.00592564     1.37500
O566        O  0.36406162  0.06381656  0.98913887    -0.56800
O567        O  0.34138197  0.09861893  0.98381156    -0.55600
C568        C  0.35466845  0.06882059  0.03584917     0.78200
O569        O  0.32436301  0.09515677  0.00243048    -0.58000
O570        O  0.33930960  0.06061755  0.99443358    -0.56400
O571        O  0.36191613  0.10846161  0.01751873    -0.56400
O572        O  0.36294390  0.06565418  0.02393489    -0.55600
O573        O  0.24600544  0.16368046  0.87059616    -0.56800
C574        C  0.25484006  0.20213295  0.89565129     0.75900
O575        O  0.21008785  0.16938177  0.90062859    -0.57900
C576        C  0.23760522  0.15135673  0.87115599     0.75800
C577        C  0.25830062  0.15607979  0.92151658     0.78200
Cd578      Cd  0.23944284  0.17226234  0.89803222     1.37500
O579        O  0.25248168  0.19366797  0.88355435    -0.56800
O580        O  0.26288630  0.15872304  0.90763825    -0.55600
C581        C  0.20726138  0.18385695  0.89847626     0.78200
O582        O  0.24442358  0.16058029  0.92492179    -0.58000
O583        O  0.25083628  0.19642286  0.90881291    -0.56400
O584        O  0.23050454  0.14876372  0.88395619    -0.56400
O585        O  0.21906521  0.19283636  0.89820180    -0.55600
O586        O  0.29474392  0.35287707  0.86967663    -0.56800
C587        C  0.28850235  0.30776362  0.89390818     0.75900
O588        O  0.33260031  0.33161541  0.89575310    -0.57900
C589        C  0.30593198  0.36278160  0.87072495     0.75800
C590        C  0.28892380  0.35394696  0.91901263     0.78200
Cd591      Cd  0.30383594  0.33768135  0.89298513     1.37500
O592        O  0.28592978  0.31712201  0.88254005    -0.56800
O593        O  0.28261266  0.35147760  0.90573009    -0.55600
C594        C  0.33269429  0.32332505  0.88323165     0.78200
O595        O  0.30287561  0.34867622  0.92091049    -0.58000
O596        O  0.29717113  0.31273513  0.90501174    -0.56400
O597        O  0.31543218  0.36117316  0.88211439    -0.56400
O598        O  0.31982550  0.32206158  0.87581976    -0.55600
O599        O  0.17067987  0.60105701  0.95133784    -0.56800
C600        C  0.19508748  0.55798514  0.96137051     0.75900
O601        O  0.20181583  0.58039331  0.91581171    -0.57900
C602        C  0.17206807  0.61157440  0.94085273     0.75800
C603        C  0.22045704  0.60254416  0.96025675     0.78200
Cd604      Cd  0.19525747  0.58687114  0.94402233     1.37500
O605        O  0.18290450  0.56671315  0.96086701    -0.56800
O606        O  0.20770407  0.59834901  0.96672285    -0.55600
C607        C  0.19066202  0.57043644  0.91482043     0.78200
O608        O  0.22192550  0.59960130  0.94565172    -0.58000
O609        O  0.20747516  0.56316502  0.95484011    -0.56400
O610        O  0.18423954  0.61087362  0.93228846    -0.56400
O611        O  0.18248303  0.56830261  0.92701932    -0.55600
O612        O  0.17089951  0.40650625  0.00013537    -0.56800
C613        C  0.19376031  0.45131707  0.99196641     0.75900
O614        O  0.20155761  0.42665456  0.03530177    -0.57900
C615        C  0.17275797  0.39595582  0.01054303     0.75800
C616        C  0.21993403  0.40620030  0.98948784     0.78200
Cd617      Cd  0.19492313  0.42109186  0.00706283     1.37500
O618        O  0.18196451  0.44212544  0.99106537    -0.56800
O619        O  0.20634536  0.40918036  0.98402209    -0.55600
C620        C  0.18965020  0.43569482  0.03683801     0.78200
O621        O  0.22239464  0.40994253  0.00378326    -0.58000
O622        O  0.20602784  0.44598895  0.99863060    -0.56400
O623        O  0.18503719  0.39681058  0.01897690    -0.56400
O624        O  0.18084886  0.43745332  0.02498452    -0.55600
O625        O  0.92467187  0.02811271  0.62431638    -0.56800
C626        C  0.96805276  0.01689685  0.64911885     0.75900
O627        O  0.94413861  0.06337625  0.65343205    -0.57900
C628        C  0.91417238  0.03862382  0.62631313     0.75800
C629        C  0.92185748  0.01829292  0.67281551     0.78200
Cd630      Cd  0.93900893  0.03458666  0.64877897     1.37500
O631        O  0.95926107  0.01701513  0.63698957    -0.56800
O632        O  0.92441266  0.01288438  0.65916296    -0.55600
C633        C  0.95410409  0.06397123  0.64224168     0.78200
O634        O  0.92707920  0.03202497  0.67579043    -0.58000
O635        O  0.96286600  0.02394262  0.66124072    -0.56400
O636        O  0.91514391  0.04691079  0.63865020    -0.56400
O637        O  0.95724458  0.05122522  0.63527824    -0.55600
O638        O  0.11776000  0.97761213  0.62146988    -0.56800
C639        C  0.07542068  0.98825159  0.64671541     0.75900
O640        O  0.10099214  0.94261017  0.65218972    -0.57900
C641        C  0.12882400  0.96766644  0.62326017     0.75800
C642        C  0.12054797  0.98935634  0.67080270     0.78200
Cd643      Cd  0.10470471  0.97148097  0.64670761     1.37500
O644        O  0.08410763  0.98813835  0.63452341    -0.56800
O645        O  0.11882113  0.99389842  0.65673888    -0.55600
C646        C  0.09018704  0.94131161  0.64184970     0.78200
O647        O  0.11520313  0.97578932  0.67418379    -0.58000
O648        O  0.08088011  0.98172833  0.65896242    -0.56400
O649        O  0.12889883  0.95991561  0.63595466    -0.56400
O650        O  0.08602199  0.95374682  0.63490164    -0.55600
O651        O  0.87049073  0.90114369  0.75507397    -0.56800
C652        C  0.82710993  0.92614421  0.74644336     0.75900
O653        O  0.85146403  0.93146432  0.79168792    -0.57900
C654        C  0.88079879  0.90193725  0.76590191     0.75800
C655        C  0.87247667  0.94975566  0.74507082     0.78200
Cd656      Cd  0.85658676  0.92572881  0.76286038     1.37500
O657        O  0.83608345  0.91415754  0.74590989    -0.56800
O658        O  0.86952402  0.93612503  0.73987224    -0.55600
C659        C  0.84129618  0.92046652  0.79248723     0.78200
O660        O  0.86828252  0.95269251  0.75916010    -0.58000
O661        O  0.83221330  0.93811149  0.75376922    -0.56400
O662        O  0.87991877  0.91363093  0.77510706    -0.56400
O663        O  0.83834536  0.91308221  0.77992662    -0.55600
O664        O  0.68001827  0.89828777  0.69948316    -0.56800
C665        C  0.72162275  0.92212071  0.71157104     0.75900
O666        O  0.69563112  0.93089168  0.66521082    -0.57900
C667        C  0.66824272  0.90036257  0.69049492     0.75800
C668        C  0.67768979  0.94888319  0.71209519     0.78200
Cd669      Cd  0.69272395  0.92399445  0.69399309     1.37500
O670        O  0.71281493  0.91007132  0.71044161    -0.56800
O671        O  0.68098215  0.93542986  0.71751961    -0.55600
C672        C  0.70767750  0.92220522  0.66321908     0.78200
O673        O  0.68138210  0.95133082  0.69781651    -0.58000
O674        O  0.71662034  0.93471422  0.70537151    -0.56400
O675        O  0.66752193  0.91342987  0.68346237    -0.56400
O676        O  0.71297094  0.91541040  0.67530361    -0.55600
O677        O  0.61902145  0.03144844  0.82807644    -0.56800
C678        C  0.57808581  0.02075466  0.80208327     0.75900
O679        O  0.60358988  0.06697511  0.79520443    -0.57900
C680        C  0.62922728  0.04234268  0.82773816     0.75800
C681        C  0.62511183  0.02084563  0.77944573     0.78200
Cd682      Cd  0.60700024  0.03831617  0.80237475     1.37500
O683        O  0.58575532  0.02294075  0.81475100    -0.56800
O684        O  0.62242684  0.01604620  0.79325768    -0.55600
C685        C  0.59136068  0.06843558  0.80375153     0.78200
O686        O  0.61973711  0.03436677  0.77591241    -0.58000
O687        O  0.58436782  0.02564938  0.78949168    -0.56400
O688        O  0.62901873  0.05129842  0.81588151    -0.56400
O689        O  0.58643571  0.05615722  0.81043157    -0.55600
O690        O  0.42861644  0.97480681  0.82703739    -0.56800
C691        C  0.47231942  0.98581191  0.80101111     0.75900
O692        O  0.44840305  0.94091147  0.79436203    -0.57900
C693        C  0.41847491  0.96394117  0.82524667     0.75800
C694        C  0.42515488  0.98681623  0.77923073     0.78200
Cd695      Cd  0.44282307  0.96901857  0.80195815     1.37500
O696        O  0.46377150  0.98611516  0.81331259    -0.56800
O697        O  0.42788705  0.99140162  0.79314097    -0.55600
C698        C  0.45858901  0.93936649  0.80528860     0.78200
O699        O  0.43053442  0.97336869  0.77534629    -0.58000
O700        O  0.46670899  0.97877225  0.78910482    -0.56400
O701        O  0.41972227  0.95560181  0.81294994    -0.56400
O702        O  0.46120980  0.95127174  0.81381709    -0.55600
O703        O  0.37248815  0.10840138  0.70152299    -0.56800
C704        C  0.32903626  0.08448595  0.70996201     0.75900
O705        O  0.34187997  0.09627916  0.67636252    -0.57900
C706        C  0.38339394  0.10672310  0.69143030     0.75800
C707        C  0.37390572  0.05844028  0.71124905     0.78200
Cd708      Cd  0.35886922  0.08353209  0.69429021     1.37500
O709        O  0.33780692  0.09658149  0.70974488    -0.56800
O710        O  0.37090324  0.07180021  0.71714606    -0.55600
C711        C  0.34387133  0.08754967  0.66452761     0.78200
O712        O  0.36994272  0.05628683  0.69697232    -0.58000
O713        O  0.33452878  0.07201348  0.70389283    -0.56400
O714        O  0.38319710  0.09422448  0.68332003    -0.56400
O715        O  0.35348264  0.07611895  0.66598419    -0.55600
O716        O  0.21253519  0.09579324  0.73653780    -0.56800
C717        C  0.16639043  0.10732072  0.75654304     0.75900
O718        O  0.18090092  0.05807559  0.74969721    -0.57900
C719        C  0.22205279  0.08461983  0.73962247     0.75800
C720        C  0.20550876  0.09395389  0.78271068     0.78200
Cd721      Cd  0.19161622  0.08530190  0.75343649     1.37500
O722        O  0.17745477  0.10960894  0.74670758    -0.56800
O723        O  0.20659957  0.10195634  0.77025490    -0.55600
C724        C  0.17617492  0.06088057  0.73574527     0.78200
O725        O  0.19756455  0.08122151  0.78200853    -0.58000
O726        O  0.16681814  0.09467856  0.76440693    -0.56400
O727        O  0.21693617  0.07337376  0.74794146    -0.56400
O728        O  0.17880546  0.07453005  0.73038731    -0.55600
O729        O  0.74786724  0.85239372  0.57865987    -0.56800
C730        C  0.75517528  0.80638471  0.55393398     0.75900
O731        O  0.71177176  0.83148259  0.55052285    -0.57900
C732        C  0.73713359  0.86269974  0.57670513     0.75800
C733        C  0.75722536  0.85213666  0.52984346     0.78200
Cd734      Cd  0.74040769  0.83683860  0.55479367     1.37500
O735        O  0.75722033  0.81555564  0.56561401    -0.56800
O736        O  0.76292192  0.84917065  0.54329466    -0.55600
C737        C  0.71104726  0.82278703  0.56270713     0.78200
O738        O  0.74305076  0.84783968  0.52732028    -0.58000
O739        O  0.74738612  0.81176537  0.54238057    -0.56400
O740        O  0.72850750  0.86118868  0.56462189    -0.56400
O741        O  0.72360884  0.82081495  0.57047727    -0.55600
O742        O  0.78863303  0.69118063  0.56706037    -0.56800
C743        C  0.80916048  0.64638419  0.57718655     0.75900
O744        O  0.80207470  0.65772995  0.52783626    -0.57900
C745        C  0.78885355  0.70038935  0.55529368     0.75800
C746        C  0.83551230  0.68549098  0.55909972     0.78200
Cd747      Cd  0.80531078  0.67083780  0.55425749     1.37500
O748        O  0.79883395  0.65706715  0.57902207    -0.56800
O749        O  0.82335536  0.68813324  0.56725114    -0.55600
C750        C  0.78742748  0.65517809  0.52986568     0.78200
O751        O  0.83399718  0.67596651  0.54761389    -0.58000
O752        O  0.81707842  0.64672338  0.56459200    -0.56400
O753        O  0.79599197  0.69558459  0.54307853    -0.56400
O754        O  0.78154482  0.65985467  0.54273227    -0.55600
O755        O  0.66809502  0.59875666  0.45214201    -0.56800
C756        C  0.69198073  0.55609841  0.46517588     0.75900
O757        O  0.69904199  0.57715686  0.41873217    -0.57900
C758        C  0.66952514  0.60756791  0.44016939     0.75800
C759        C  0.71673989  0.60216323  0.46208560     0.78200
Cd760      Cd  0.69256564  0.58393711  0.44668278     1.37500
O761        O  0.67948496  0.56428093  0.46383208    -0.56800
O762        O  0.70280602  0.60064615  0.46721853    -0.55600
C763        C  0.68825447  0.56677553  0.41800816     0.78200
O764        O  0.72005045  0.59499537  0.44934677    -0.58000
O765        O  0.70452325  0.56166748  0.45933984    -0.56400
O766        O  0.68158822  0.60553383  0.43165113    -0.56400
O767        O  0.68056630  0.56417284  0.43043528    -0.55600
O768        O  0.67199210  0.40712621  0.50077938    -0.56800
C769        C  0.69675724  0.44925976  0.49191360     0.75900
O770        O  0.70474047  0.42561058  0.53547777    -0.57900
C771        C  0.67379846  0.39588969  0.51041842     0.75800
C772        C  0.72087428  0.40317671  0.48978776     0.78200
Cd773      Cd  0.69727016  0.41971150  0.50745183     1.37500
O774        O  0.68522045  0.43981359  0.49072954    -0.56800
O775        O  0.70805072  0.40809358  0.48394897    -0.55600
C776        C  0.69289784  0.43470357  0.53717619     0.78200
O777        O  0.72331840  0.40614708  0.50426387    -0.58000
O778        O  0.70884391  0.44452468  0.49934369    -0.56400
O779        O  0.68648171  0.39560364  0.51827006    -0.56400
O780        O  0.68383217  0.43636309  0.52552392    -0.55600
O781        O  0.86522933  0.94246380  0.46153711    -0.56800
C782        C  0.87730664  0.89713721  0.44221294     0.75900
O783        O  0.82594994  0.90932250  0.44880800    -0.57900
C784        C  0.85283363  0.95092053  0.46170182     0.75800
C785        C  0.85643100  0.93536841  0.41526282     0.78200
Cd786      Cd  0.85306401  0.92091798  0.44570742     1.37500
O787        O  0.87841098  0.90751217  0.45294466    -0.56800
O788        O  0.86312465  0.94002941  0.42767617    -0.55600
C789        C  0.82884788  0.90419448  0.46255367     0.78200
O790        O  0.84701130  0.92381038  0.41660932    -0.58000
O791        O  0.86518890  0.89779004  0.43355040    -0.56400
O792        O  0.84050255  0.94492271  0.45575845    -0.56400
O793        O  0.84251851  0.90677872  0.46797013    -0.55600
O794        O  0.87827079  0.10131732  0.50352685    -0.56800
C795        C  0.85346336  0.05741223  0.49386199     0.75900
O796        O  0.84660745  0.08306983  0.53856136    -0.57900
C797        C  0.87642101  0.11176717  0.51408487     0.75800
C798        C  0.82942954  0.10277021  0.49166850     0.78200
Cd799      Cd  0.85324708  0.08718394  0.50996633     1.37500
O800        O  0.86543944  0.06640613  0.49363937    -0.56800
O801        O  0.84315300  0.09971320  0.48666500    -0.55600
C802        C  0.85722181  0.07253547  0.53992168     0.78200
O803        O  0.82627819  0.09866033  0.50570906    -0.58000
O804        O  0.84128478  0.06249183  0.50090877    -0.56400
O805        O  0.86401290  0.11086370  0.52229036    -0.56400
O806        O  0.86503323  0.06912184  0.52774442    -0.55600
O807        O  0.74722627  0.15630095  0.37459203    -0.56800
C808        C  0.75762416  0.19904120  0.39812790     0.75900
O809        O  0.71247715  0.17670122  0.40602397    -0.57900
C810        C  0.73707191  0.14549937  0.37638639     0.75800
C811        C  0.75832277  0.15397418  0.42292671     0.78200
Cd812      Cd  0.74064114  0.17012777  0.39909811     1.37500
O813        O  0.75753733  0.18990324  0.38627995    -0.56800
O814        O  0.76336671  0.15653181  0.40917156    -0.55600
C815        C  0.71115949  0.18601667  0.39437340     0.78200
O816        O  0.74448648  0.15888082  0.42613615    -0.58000
O817        O  0.75093519  0.19418212  0.41052585    -0.56400
O818        O  0.72880405  0.14596894  0.38878110    -0.56400
O819        O  0.72309975  0.18759314  0.38566375    -0.55600
O820        O  0.79211950  0.31290541  0.38368849    -0.56800
C821        C  0.81055085  0.35933012  0.37342473     0.75900
O822        O  0.80365587  0.34645119  0.42279428    -0.57900
C823        C  0.79061949  0.30493355  0.39622293     0.75800
C824        C  0.83856117  0.31995341  0.39360169     0.78200
Cd825      Cd  0.80772117  0.33426423  0.39624356     1.37500
O826        O  0.80190220  0.34743493  0.37071524    -0.56800
O827        O  0.82695291  0.31668705  0.38490093    -0.55600
C828        C  0.78966601  0.35085350  0.41954910     0.78200
O829        O  0.83618674  0.33000527  0.40445863    -0.58000
O830        O  0.81772595  0.35955353  0.38647064    -0.56400
O831        O  0.79605211  0.31099220  0.40873989    -0.56400
O832        O  0.78448765  0.34746523  0.40598614    -0.55600
O833        O  0.87088194  0.10639321  0.19685584    -0.56800
C834        C  0.82830204  0.08197741  0.20508160     0.75900
O835        O  0.85495894  0.07648530  0.15986120    -0.57900
C836        C  0.88178237  0.10512085  0.18669786     0.75800
C837        C  0.87325714  0.05748553  0.20693600     0.78200
Cd838      Cd  0.85777726  0.08155110  0.18897187     1.37500
O839        O  0.83641096  0.09447152  0.20376655    -0.56800
O840        O  0.86971990  0.07097923  0.21213799    -0.55600
C841        C  0.84295628  0.08544257  0.15879915     0.78200
O842        O  0.86956557  0.05451482  0.19270714    -0.58000
O843        O  0.83429733  0.06936089  0.19976050    -0.56400
O844        O  0.88170932  0.09291292  0.17817930    -0.56400
O845        O  0.83803122  0.09158663  0.17137518    -0.55600
O846        O  0.68195570  0.10605265  0.25389785    -0.56800
C847        C  0.72411385  0.08153571  0.24426243     0.75900
O848        O  0.69675586  0.07388029  0.28895620    -0.57900
C849        C  0.67083760  0.10441834  0.26374522     0.75800
C850        C  0.67848928  0.05614840  0.24112624     0.78200
Cd851      Cd  0.69419064  0.08018411  0.25986820     1.37500
O852        O  0.71448012  0.09297659  0.24333231    -0.56800
O853        O  0.68193391  0.06967501  0.23601150    -0.55600
C854        C  0.70788207  0.08376031  0.29075304     0.78200
O855        O  0.68212312  0.05333699  0.25537202    -0.58000
O856        O  0.71953555  0.06943426  0.25165726    -0.56400
O857        O  0.67038601  0.09159542  0.27123412    -0.56400
O858        O  0.71273123  0.09058537  0.27853329    -0.55600
O859        O  0.58613493  0.98760877  0.13525718    -0.56800
C860        C  0.63097068  0.96651078  0.12515457     0.75900
O861        O  0.61687486  0.97420361  0.17611162    -0.57900
C862        C  0.57775801  0.98952344  0.14750244     0.75800
C863        C  0.59109794  0.94036462  0.14361384     0.78200
Cd864      Cd  0.60634918  0.97065065  0.14840486     1.37500
O865        O  0.62065725  0.97727409  0.12364647    -0.56800
O866        O  0.58714458  0.95298535  0.13688917    -0.55600
C867        C  0.62451648  0.98658061  0.17254381     0.78200
O868        O  0.60194748  0.94143506  0.15392114    -0.58000
O869        O  0.62991300  0.95796843  0.13727182    -0.56400
O870        O  0.58325897  0.98394885  0.16020382    -0.56400
O871        O  0.62348812  0.99113933  0.15842641    -0.55600
O872        O  0.46151037  0.01878649  0.13211297    -0.56800
C873        C  0.41509896  0.03637272  0.12081320     0.75900
O874        O  0.42856624  0.02872585  0.17126573    -0.57900
C875        C  0.47019955  0.01907969  0.14430973     0.75800
C876        C  0.45183345  0.06485243  0.14022068     0.78200
Cd877      Cd  0.43942519  0.03376757  0.14428780     1.37500
O878        O  0.42615272  0.02637261  0.11921484    -0.56800
O879        O  0.45583688  0.05293323  0.13230261    -0.55600
C880        C  0.42361324  0.01506875  0.16760374     0.78200
O881        O  0.44161755  0.06278310  0.15099680    -0.58000
O882        O  0.41521371  0.04460155  0.13323447    -0.56400
O883        O  0.46432605  0.02532919  0.15653641    -0.56400
O884        O  0.42596355  0.01057014  0.15359873    -0.55600
O885        O  0.17899727  0.89643382  0.20075671    -0.56800
C886        C  0.22263032  0.92117025  0.20868130     0.75900
O887        O  0.19532764  0.92972359  0.16585596    -0.57900
C888        C  0.16829921  0.89802669  0.19040306     0.75800
C889        C  0.17615265  0.94584711  0.21250696     0.78200
Cd890      Cd  0.19207072  0.92183540  0.19419570     1.37500
O891        O  0.21419484  0.90883016  0.20838629    -0.56800
O892        O  0.17869249  0.93196664  0.21727960    -0.55600
C893        C  0.20592575  0.91933064  0.16363373     0.78200
O894        O  0.18093473  0.94909826  0.19871344    -0.58000
O895        O  0.21637502  0.93370185  0.20356801    -0.56400
O896        O  0.16851146  0.91055581  0.18240303    -0.56400
O897        O  0.20964048  0.91087090  0.17523458    -0.55600
O898        O  0.37038229  0.89632856  0.25123393    -0.56800
C899        C  0.32927301  0.92088387  0.23964153     0.75900
O900        O  0.35177367  0.92890761  0.28512463    -0.57900
C901        C  0.38120199  0.89762948  0.26146881     0.75800
C902        C  0.37453060  0.94513746  0.23887459     0.78200
Cd903      Cd  0.35794314  0.92176305  0.25699861     1.37500
O904        O  0.33821726  0.90890195  0.24033131    -0.56800
O905        O  0.37119612  0.93155503  0.23377704    -0.55600
C906        C  0.34136915  0.91816750  0.28618983     0.78200
O907        O  0.37038736  0.94829472  0.25293003    -0.58000
O908        O  0.33415468  0.93344831  0.24605568    -0.56400
O909        O  0.38155763  0.91028530  0.26933581    -0.56400
O910        O  0.33871695  0.91011680  0.27399924    -0.55600
O911        O  0.92450357  0.98058542  0.33087739    -0.56800
C912        C  0.96973162  0.98973176  0.30736429     0.75900
O913        O  0.94470894  0.94517528  0.29909989    -0.57900
C914        C  0.91415103  0.96996007  0.32890897     0.75800
C915        C  0.92398675  0.99127244  0.28105032     0.78200
Cd916      Cd  0.93945494  0.97382549  0.30624644     1.37500
O917        O  0.96070030  0.98984448  0.31930941    -0.56800
O918        O  0.92651071  0.99675295  0.29468516    -0.55600
C919        C  0.95467964  0.94355147  0.31019814     0.78200
O920        O  0.92854453  0.97721038  0.27859794    -0.58000
O921        O  0.96432035  0.98334351  0.29501115    -0.56400
O922        O  0.91530647  0.96178032  0.31651148    -0.56400
O923        O  0.95689357  0.95537799  0.31892165    -0.55600
O924        O  0.08689417  0.01546083  0.31980292    -0.56800
C925        C  0.13151091  0.03513108  0.33240991     0.75900
O926        O  0.12065598  0.02959904  0.28140904    -0.57900
C927        C  0.07798642  0.01616168  0.30777490     0.75800
C928        C  0.09255982  0.06242684  0.31318209     0.78200
Cd929      Cd  0.10770127  0.03223256  0.30822774     1.37500
O930        O  0.12034309  0.02532219  0.33395679    -0.56800
O931        O  0.08918792  0.04999950  0.32051809    -0.55600
C932        C  0.12409568  0.01514964  0.28332943     0.78200
O933        O  0.10298165  0.06121117  0.30246385    -0.58000
O934        O  0.13169647  0.04303409  0.31982461    -0.56400
O935        O  0.08343075  0.02309943  0.29576327    -0.56400
O936        O  0.12010387  0.00914026  0.29634504    -0.55600
O937        O  0.54736205  0.14817589  0.87564859    -0.56800
C938        C  0.54013055  0.17197937  0.92318870     0.75900
O939        O  0.58369059  0.17416161  0.89849399    -0.57900
C940        C  0.55763673  0.15123751  0.86516774     0.75800
C941        C  0.53746870  0.19718417  0.87971941     0.78200
Cd942      Cd  0.55470057  0.17112187  0.89272758     1.37500
O943        O  0.53770034  0.16036698  0.91397632    -0.56800
O944        O  0.53128169  0.18402266  0.88294348    -0.55600
C945        C  0.58378591  0.16225019  0.90759197     0.78200
O946        O  0.55214321  0.19871786  0.88263715    -0.58000
O947        O  0.54833888  0.18324669  0.91787008    -0.56400
O948        O  0.56591373  0.16343841  0.86731779    -0.56400
O949        O  0.57088762  0.15503298  0.90934964    -0.55600
O950        O  0.49807782  0.14894062  0.07339465    -0.56800
C951        C  0.50794566  0.17240454  0.02962548     0.75900
O952        O  0.46243160  0.17952960  0.05338053    -0.57900
C953        C  0.48789672  0.15109425  0.08414919     0.75800
C954        C  0.50947646  0.19754188  0.07436751     0.78200
Cd955      Cd  0.49129952  0.17329863  0.05901152     1.37500
O956        O  0.50727133  0.16037270  0.03845523    -0.56800
O957        O  0.51512177  0.18433378  0.07034740    -0.55600
C958        C  0.46115694  0.16790091  0.04398119     0.78200
O959        O  0.49492972  0.19989345  0.07139324    -0.58000
O960        O  0.50176885  0.18498957  0.03481376    -0.56400
O961        O  0.47986148  0.16362259  0.08349252    -0.56400
O962        O  0.47343717  0.15979030  0.04172926    -0.55600
O963        O  0.43518908  0.26686797  0.78680444    -0.56800
C964        C  0.42159520  0.28641059  0.82976727     0.75900
O965        O  0.47396576  0.27908872  0.81790418    -0.57900
C966        C  0.44767406  0.26702769  0.77854606     0.75800
C967        C  0.44219682  0.31410101  0.79346852     0.78200
Cd968      Cd  0.44657261  0.28365701  0.80740852     1.37500
O969        O  0.42035904  0.27711660  0.81811589    -0.56800
O970        O  0.43595929  0.30162415  0.78839271    -0.55600
C971        C  0.46994794  0.26642459  0.82476277     0.78200
O972        O  0.45170015  0.31274168  0.80498773    -0.58000
O973        O  0.43445148  0.29383670  0.83120940    -0.56400
O974        O  0.45971581  0.27367899  0.78435141    -0.56400
O975        O  0.45566521  0.26231847  0.82348053    -0.55600
O976        O  0.42454356  0.22729837  0.62891445    -0.56800
C977        C  0.44863077  0.23847127  0.67197205     0.75900
O978        O  0.45498956  0.19284398  0.64988956    -0.57900
C979        C  0.42675008  0.21690586  0.61838157     0.75800
C980        C  0.47250952  0.23921365  0.62719971     0.78200
Cd981      Cd  0.44908213  0.22115266  0.64337015     1.37500
O982        O  0.43657542  0.23802853  0.66307146    -0.56800
O983        O  0.45877418  0.24412378  0.63039406    -0.55600
C984        C  0.44373495  0.19218866  0.65980370     0.78200
O985        O  0.47596764  0.22528717  0.63154034    -0.58000
O986        O  0.46113123  0.23187100  0.66705367    -0.56400
O987        O  0.43920523  0.20872766  0.61942855    -0.56400
O988        O  0.43586146  0.20462395  0.66196282    -0.55600
O989        O  0.54862533  0.35900014  0.57452077    -0.56800
C990        C  0.53985285  0.33473989  0.52973038     0.75900
O991        O  0.58525065  0.32925981  0.55485104    -0.57900
C992        C  0.55880627  0.35694028  0.58531241     0.75800
C993        C  0.53991183  0.31017474  0.57484320     0.78200
Cd994      Cd  0.55637818  0.33499533  0.55956520     1.37500
O995        O  0.53931286  0.34674356  0.53866510    -0.56800
O996        O  0.53414893  0.32370649  0.57248556    -0.55600
C997        C  0.58637077  0.34105397  0.54571854     0.78200
O998        O  0.55391272  0.30768290  0.57002138    -0.58000
O999        O  0.54737773  0.32291556  0.53487789    -0.56400
O1000       O  0.56726548  0.34469449  0.58434564    -0.56400
O1001       O  0.57410115  0.34923137  0.54364192    -0.55600
O1002       O  0.50135684  0.35721581  0.37734454    -0.56800
C1003       C  0.50904020  0.33409449  0.42274907     0.75900
O1004       O  0.46524176  0.32824110  0.39790593    -0.57900
C1005       C  0.49044106  0.35566237  0.36717719     0.75800
C1006       C  0.51091977  0.30919345  0.37560477     0.78200
Cd1007     Cd  0.49399012  0.33341807  0.39227972     1.37500
O1008       O  0.50962782  0.34593529  0.41366627    -0.56800
O1009       O  0.51628878  0.32284805  0.37822502    -0.55600
C1010       C  0.46406660  0.34084595  0.40599061     0.78200
O1011       O  0.49722332  0.30616946  0.38096258    -0.58000
O1012       O  0.50293188  0.32167241  0.41716102    -0.56400
O1013       O  0.48186520  0.34353134  0.36824132    -0.56400
O1014       O  0.47636939  0.34905998  0.40750581    -0.55600
O1015       O  0.61373891  0.26994389  0.16553269    -0.56800
C1016       C  0.62297546  0.28931607  0.12117670     0.75900
O1017       O  0.57259847  0.28161628  0.13477137    -0.57900
C1018       C  0.60159560  0.26824222  0.17411256     0.75800
C1019       C  0.60396042  0.31683528  0.15939743     0.78200
Cd1020     Cd  0.59995863  0.28603383  0.14550963     1.37500
O1021       O  0.62507399  0.27970114  0.13239920    -0.56800
O1022       O  0.61033414  0.30440240  0.16441291    -0.55600
C1023       C  0.57613676  0.26815859  0.12917266     0.78200
O1024       O  0.59443092  0.31532886  0.14793106    -0.58000
O1025       O  0.61018518  0.29697975  0.12109598    -0.56400
O1026       O  0.58882672  0.27429622  0.16918757    -0.56400
O1027       O  0.59009159  0.26338495  0.13145032    -0.55600
O1028       O  0.62715261  0.22698362  0.32413600    -0.56800
C1029       C  0.60330220  0.23464900  0.27947302     0.75900
O1030       O  0.59804418  0.19099897  0.30361800    -0.57900
C1031       C  0.62538200  0.21670385  0.33481329     0.75800
C1032       C  0.57850981  0.23711672  0.32404828     0.78200
Cd1033     Cd  0.60321750  0.21945569  0.30934361     1.37500
O1034       O  0.61513713  0.23592823  0.28860765    -0.56800
O1035       O  0.59219813  0.24236050  0.32133443    -0.55600
C1036       C  0.60974102  0.19025341  0.29422175     0.78200
O1037       O  0.57573259  0.22295239  0.31999287    -0.58000
O1038       O  0.59128350  0.22756441  0.28476176    -0.56400
O1039       O  0.61336091  0.20792836  0.33376490    -0.56400
O1040       O  0.61761277  0.20267051  0.29216339    -0.55600
O1041       O  0.93320496  0.26692383  0.28902056    -0.56800
C1042       C  0.92399369  0.28754293  0.33387808     0.75900
O1043       O  0.97526688  0.28123320  0.31809808    -0.57900
C1044       C  0.94496310  0.26666908  0.27973831     0.75800
C1045       C  0.94177967  0.31316864  0.29415087     0.78200
Cd1046     Cd  0.94683947  0.28350163  0.30896018     1.37500
O1047       O  0.92303701  0.27599083  0.32440847    -0.56800
O1048       O  0.93543488  0.30054898  0.28957730    -0.55600
C1049       C  0.97278354  0.26794705  0.32447340     0.78200
O1050       O  0.95160165  0.31221795  0.30542647    -0.58000
O1051       O  0.93538777  0.29689535  0.33184310    -0.56400
O1052       O  0.95760989  0.27294045  0.28461627    -0.56400
O1053       O  0.95892471  0.26255552  0.32346443    -0.55600
O1054       O  0.91903949  0.23051526  0.12945609    -0.56800
C1055       C  0.94452510  0.23883560  0.17232847     0.75900
O1056       O  0.95023042  0.19399717  0.14648807    -0.57900
C1057       C  0.92015217  0.22033332  0.11855884     0.75800
C1058       C  0.96856789  0.23913594  0.12596567     0.78200
Cd1059     Cd  0.94412103  0.22275806  0.14254460     1.37500
O1060       O  0.93230914  0.23927027  0.16365504    -0.56800
O1061       O  0.95543270  0.24516862  0.12969923    -0.55600
C1062       C  0.93969005  0.19278927  0.15706749     0.78200
O1063       O  0.97092155  0.22493681  0.13003413    -0.58000
O1064       O  0.95660915  0.23204314  0.16670482    -0.56400
O1065       O  0.93223224  0.21158323  0.11877418    -0.56400
O1066       O  0.93227311  0.20513811  0.16071199    -0.55600
O1067       O  0.12735459  0.22644049  0.82381755    -0.56800
C1068       C  0.10425971  0.23774013  0.77864633     0.75900
O1069       O  0.09578772  0.19235557  0.80199227    -0.57900
C1070       C  0.12565646  0.21480389  0.83303309     0.75800
C1071       C  0.07931296  0.23697527  0.82520468     0.78200
Cd1072     Cd  0.10326915  0.22038720  0.80785802     1.37500
O1073       O  0.11653869  0.23639479  0.78714916    -0.56800
O1074       O  0.09325776  0.24189423  0.82325487    -0.55600
C1075       C  0.10684096  0.19091414  0.79195601     0.78200
O1076       O  0.07577164  0.22396327  0.81866928    -0.58000
O1077       O  0.09154918  0.23230102  0.78427139    -0.56400
O1078       O  0.11386522  0.20603580  0.83055261    -0.56400
O1079       O  0.11541574  0.20280073  0.78959212    -0.55600
O1080       O  0.12985875  0.27739424  0.62798737    -0.56800
C1081       C  0.10535895  0.26555101  0.67120993     0.75900
O1082       O  0.09624219  0.31112397  0.64931324    -0.57900
C1083       C  0.12880611  0.28899532  0.61865936     0.75800
C1084       C  0.08156157  0.26715614  0.62355137     0.78200
Cd1085     Cd  0.10487958  0.28337441  0.64236423     1.37500
O1086       O  0.11746691  0.26586529  0.66239142    -0.56800
O1087       O  0.09474867  0.26127371  0.62731269    -0.55600
C1088       C  0.10708457  0.31251270  0.65960298     0.78200
O1089       O  0.07850906  0.28080171  0.62891849    -0.58000
O1090       O  0.09303528  0.27222581  0.66601397    -0.56400
O1091       O  0.11693671  0.29787772  0.62039476    -0.56400
O1092       O  0.11599594  0.30077758  0.66160350    -0.55600
O1093       O  0.00094790  0.35515484  0.87879049    -0.56800
C1094       C  0.00896341  0.33207043  0.92256135     0.75900
O1095       O  0.96394379  0.32447311  0.89820218    -0.57900
C1096       C  0.99035501  0.35379194  0.86830878     0.75800
C1097       C  0.01051903  0.30639889  0.87839770     0.78200
Cd1098     Cd  0.99267075  0.33123499  0.89325710     1.37500
O1099       O  0.00709845  0.34460860  0.91464266    -0.56800
O1100       O  0.01625638  0.31974569  0.88166672    -0.55600
C1101       C  0.96263740  0.33484479  0.90895991     0.78200
O1102       O  0.99604618  0.30426855  0.88175413    -0.58000
O1103       O  0.00421966  0.31934573  0.91640103    -0.56400
O1104       O  0.98116316  0.34215290  0.86944544    -0.56400
O1105       O  0.97482135  0.34274907  0.91208799    -0.55600
O1106       O  0.04074888  0.34030909  0.03742634    -0.56800
C1107       C  0.06038927  0.35248933  0.08311427     0.75900
O1108       O  0.05485267  0.30221213  0.06914272    -0.57900
C1109       C  0.04211276  0.32848244  0.02834357     0.75800
C1110       C  0.08781940  0.33577799  0.04394848     0.78200
Cd1111     Cd  0.05800266  0.32945125  0.05813370     1.37500
O1112       O  0.05009246  0.35383811  0.07231307    -0.56800
O1113       O  0.07534237  0.34344466  0.04119625    -0.55600
C1114       C  0.04093807  0.30525590  0.07392068     0.78200
O1115       O  0.08681577  0.32428914  0.05349162    -0.58000
O1116       O  0.06922247  0.34047576  0.08248706    -0.56400
O1117       O  0.04991412  0.31683492  0.03348044    -0.56400
O1118       O  0.03563360  0.31890573  0.07125010    -0.55600
O1119       O  0.99989222  0.14706955  0.57098849    -0.56800
C1120       C  0.00956670  0.17173170  0.52829767     0.75900
O1121       O  0.96474842  0.18018557  0.55621844    -0.57900
C1122       C  0.98935020  0.14857741  0.58149593     0.75800
C1123       C  0.01267541  0.19662851  0.57260302     0.78200
Cd1124     Cd  0.99363190  0.17263532  0.55801466     1.37500
O1125       O  0.00947985  0.15959799  0.53703108    -0.56800
O1126       O  0.01775305  0.18300749  0.56937174    -0.55600
C1127       C  0.96263680  0.17137388  0.54429852     0.78200
O1128       O  0.99824776  0.19937037  0.56956019    -0.58000
O1129       O  0.00269909  0.18391932  0.53352361    -0.56400
O1130       O  0.98135693  0.16113129  0.58125928    -0.56400
O1131       O  0.97464576  0.16443552  0.53890149    -0.55600
O1132       O  0.05416427  0.15098827  0.38129098    -0.56800
C1133       C  0.04468973  0.17456322  0.42319501     0.75900
O1134       O  0.09008663  0.18226998  0.39797463    -0.57900
C1135       C  0.06394415  0.15220360  0.37007327     0.75800
C1136       C  0.04270895  0.20139017  0.37972355     0.78200
Cd1137     Cd  0.06103477  0.17633766  0.39384862     1.37500
O1138       O  0.04521548  0.16274768  0.41404115    -0.56800
O1139       O  0.03821907  0.18723622  0.38068655    -0.55600
C1140       C  0.09117701  0.17198791  0.40879894     0.78200
O1141       O  0.05653830  0.20438591  0.38472118    -0.58000
O1142       O  0.05060402  0.18727759  0.41819812    -0.56400
O1143       O  0.07184674  0.16482042  0.36945313    -0.56400
O1144       O  0.07869849  0.16486676  0.41247945    -0.55600
O1145       O  0.87756503  0.60613799  0.70133347    -0.56800
C1146       C  0.83114000  0.58396740  0.70823413     0.75900
O1147       O  0.85469506  0.57843182  0.66532387    -0.57900
C1148       C  0.88793995  0.60365756  0.69081597     0.75800
C1149       C  0.87495489  0.55727670  0.71176627     0.78200
Cd1150     Cd  0.86153709  0.58300152  0.69382763     1.37500
O1151       O  0.84072689  0.59529123  0.71032023    -0.56800
O1152       O  0.87095701  0.57040680  0.71762779    -0.55600
C1153       C  0.84717287  0.59141535  0.66443307     0.78200
O1154       O  0.87286860  0.55560582  0.69700559    -0.58000
O1155       O  0.83606485  0.57223499  0.70038984    -0.56400
O1156       O  0.88639142  0.59139132  0.68248292    -0.56400
O1157       O  0.84671123  0.59983256  0.67669537    -0.55600
O1158       O  0.67962769  0.60696042  0.74877264    -0.56800
C1159       C  0.72439325  0.58495589  0.73985745     0.75900
O1160       O  0.69890028  0.57484240  0.78390347    -0.57900
C1161       C  0.67105895  0.60618197  0.76099612     0.75800
C1162       C  0.67686603  0.55945553  0.73890975     0.78200
Cd1163     Cd  0.69473621  0.58282169  0.75580361     1.37500
O1164       O  0.71585442  0.59709622  0.74176014    -0.56800
O1165       O  0.67901916  0.57338787  0.73417959    -0.55600
C1166       C  0.70948640  0.58527406  0.78584317     0.78200
O1167       O  0.68312737  0.55576163  0.75200255    -0.58000
O1168       O  0.71852536  0.57188118  0.74393442    -0.56400
O1169       O  0.67363621  0.59490524  0.77031765    -0.56400
O1170       O  0.71322998  0.59338403  0.77402219    -0.55600
O1171       O  0.62144335  0.48039338  0.61950976    -0.56800
C1172       C  0.57795227  0.48908860  0.64413707     0.75900
O1173       O  0.60508247  0.44455299  0.65057871    -0.57900
C1174       C  0.63125193  0.46911321  0.62040804     0.75800
C1175       C  0.62383421  0.49074591  0.66919830     0.78200
Cd1176     Cd  0.60791592  0.47347175  0.64468599     1.37500
O1177       O  0.58690874  0.48940007  0.63212854    -0.56800
O1178       O  0.62061371  0.49641545  0.65583030    -0.55600
C1179       C  0.59274607  0.44344638  0.64211352     0.78200
O1180       O  0.61989662  0.47652828  0.67156706    -0.58000
O1181       O  0.58343676  0.48273131  0.65646598    -0.56400
O1182       O  0.63019767  0.46029236  0.63230137    -0.56400
O1183       O  0.58766375  0.45595004  0.63597070    -0.55600
O1184       O  0.42801352  0.52817386  0.61972082    -0.56800
C1185       C  0.47090619  0.51955708  0.64305803     0.75900
O1186       O  0.44175083  0.56478029  0.65014137    -0.57900
C1187       C  0.41788540  0.53917680  0.62035908     0.75800
C1188       C  0.42575493  0.51873343  0.66970167     0.78200
Cd1189     Cd  0.44124482  0.53586231  0.64485414     1.37500
O1190       O  0.46277608  0.52172246  0.63065865    -0.56800
O1191       O  0.42920423  0.51299436  0.65641283    -0.55600
C1192       C  0.45503697  0.56646392  0.64348968     0.78200
O1193       O  0.42923368  0.53309646  0.67193142    -0.58000
O1194       O  0.46494149  0.52423103  0.65591541    -0.56400
O1195       O  0.41872412  0.54834136  0.63202941    -0.56400
O1196       O  0.46211927  0.55412471  0.63927376    -0.55600
O1197       O  0.96627316  0.48416947  0.81705361    -0.56800
C1198       C  0.92084540  0.46610237  0.82795316     0.75900
O1199       O  0.93505561  0.47372445  0.77623209    -0.57900
C1200       C  0.97520276  0.48416065  0.80504991     0.75800
C1201       C  0.95924238  0.43851808  0.80768905     0.78200
Cd1202     Cd  0.94496275  0.46907480  0.80398768     1.37500
O1203       O  0.93211526  0.47582365  0.82947963    -0.56800
O1204       O  0.96368024  0.45072960  0.81484417    -0.55600
C1205       C  0.92864029  0.48682748  0.77969122     0.78200
O1206       O  0.94800664  0.44012985  0.79786621    -0.58000
O1207       O  0.92060867  0.45811187  0.81536354    -0.56400
O1208       O  0.96950403  0.47863930  0.79240754    -0.56400
O1209       O  0.93000233  0.49134315  0.79382524    -0.55600
O1210       O  0.12212655  0.52950312  0.82876085    -0.56800
C1211       C  0.08085244  0.51831189  0.80501166     0.75900
O1212       O  0.10473108  0.56471002  0.79711652    -0.57900
C1213       C  0.13307350  0.53954799  0.82740439     0.75800
C1214       C  0.12476705  0.51811946  0.77978643     0.78200
Cd1215     Cd  0.10921705  0.53618101  0.80364797     1.37500
O1216       O  0.08931828  0.51991562  0.81725182    -0.56800
O1217       O  0.12206001  0.51344100  0.79361241    -0.55600
C1218       C  0.09326139  0.56571600  0.80671854     0.78200
O1219       O  0.12046813  0.53205916  0.77639169    -0.58000
O1220       O  0.08600900  0.52424268  0.79235053    -0.56400
O1221       O  0.13309226  0.54779268  0.81502759    -0.56400
O1222       O  0.08921701  0.55327930  0.81365782    -0.55600
O1223       O  0.17771611  0.39329446  0.70756230    -0.56800
C1224       C  0.22298828  0.41822126  0.71542143     0.75900
O1225       O  0.19700501  0.42362189  0.67216747    -0.57900
C1226       C  0.16728711  0.39512214  0.69694017     0.75800
C1227       C  0.17642256  0.44264157  0.71662896     0.78200
Cd1228     Cd  0.19242738  0.41765805  0.70062249     1.37500
O1229       O  0.21411806  0.40627079  0.71705404    -0.56800
O1230       O  0.17906334  0.42929713  0.72269941    -0.55600
C1231       C  0.20648525  0.41206627  0.67076730     0.78200
O1232       O  0.18144233  0.44487092  0.70271880    -0.58000
O1233       O  0.21712491  0.42997994  0.70838219    -0.56400
O1234       O  0.16833181  0.40737910  0.68859648    -0.56400
O1235       O  0.20909433  0.40389114  0.68287493    -0.55600
O1236       O  0.37347064  0.40046607  0.75206532    -0.56800
C1237       C  0.33123127  0.42292107  0.73948140     0.75900
O1238       O  0.35474374  0.43089063  0.78698715    -0.57900
C1239       C  0.38291867  0.40146501  0.76362464     0.75800
C1240       C  0.37597761  0.44979788  0.74140648     0.78200
Cd1241     Cd  0.35924433  0.42529935  0.75817455     1.37500
O1242       O  0.34000661  0.41096330  0.74156988    -0.56800
O1243       O  0.37573389  0.43552137  0.73722634    -0.55600
C1244       C  0.34222810  0.42266439  0.78743750     0.78200
O1245       O  0.36873882  0.45320262  0.75406912    -0.58000
O1246       O  0.33614646  0.43592829  0.74488121    -0.56400
O1247       O  0.38135538  0.41330979  0.77252783    -0.56400
O1248       O  0.33748458  0.41701774  0.77456152    -0.55600
C1249       C  0.26351960  0.42701939  0.72262259     0.21400
C1250       C  0.27702283  0.43653454  0.72289858    -0.38500
C1251       C  0.29132209  0.42873006  0.72572836     0.20400
C1252       C  0.29216870  0.41262198  0.72793531     0.23000
C1253       C  0.27861167  0.40308082  0.72765889    -0.39000
C1254       C  0.26423210  0.41093466  0.72499444     0.21800
N1255       N  0.24861696  0.43164162  0.71988930    -0.32300
C1256       C  0.23965483  0.41846191  0.72047744    -0.09800
C1257       C  0.24896524  0.40527491  0.72377721    -0.28600
N1258       N  0.30698412  0.40828117  0.73169022    -0.45200
C1259       C  0.31551594  0.42176417  0.73219663    -0.04500
C1260       C  0.30617935  0.43472667  0.72834095    -0.21900
H1261       H  0.27639373  0.44915635  0.72134788     0.19900
H1262       H  0.27918700  0.39052365  0.72966308     0.18700
H1263       H  0.24521724  0.39312515  0.72434101     0.15000
H1264       H  0.30951174  0.44701167  0.72867989     0.14900
H1265       H  0.24484544  0.44302500  0.71718569     0.33000
H1266       H  0.31074534  0.39705321  0.73499740     0.35800
C1267       C  0.15694611  0.47646321  0.73283304     0.21400
C1268       C  0.15129586  0.49205125  0.73382389    -0.38500
C1269       C  0.14404990  0.49622216  0.74816292     0.20400
C1270       C  0.14266485  0.48559512  0.76040449     0.23000
C1271       C  0.14819579  0.47014556  0.75940716    -0.39000
C1272       C  0.15534789  0.46603413  0.74521403     0.21800
N1273       N  0.16460633  0.46953207  0.72075501    -0.32300
C1274       C  0.16784394  0.45467762  0.72567985    -0.09800
C1275       C  0.16218032  0.45210282  0.74080734    -0.28600
N1276       N  0.13567218  0.49222649  0.77283496    -0.45200
C1277       C  0.13244647  0.50724845  0.76869963    -0.04500
C1278       C  0.13744313  0.51027684  0.75331536    -0.21900
H1279       H  0.15255921  0.50031343  0.72423985     0.19900
H1280       H  0.14712968  0.46194345  0.76907543     0.18700
H1281       H  0.16312987  0.44147819  0.74775009     0.15000
H1282       H  0.13650838  0.52121066  0.74688134     0.14900
H1283       H  0.16758786  0.47459998  0.70997387     0.33000
H1284       H  0.13326812  0.48680237  0.78359042     0.35800
C1285       C  0.01513920  0.49536421  0.79799425     0.21400
C1286       C  0.02839567  0.49890836  0.78886293    -0.38500
C1287       C  0.04210811  0.50262096  0.79724488     0.20400
C1288       C  0.04269957  0.50274878  0.81352489     0.23000
C1289       C  0.02937253  0.49919682  0.82271417    -0.39000
C1290       C  0.01554616  0.49555771  0.81428256     0.21800
N1291       N  0.00068490  0.49163929  0.79273659    -0.32300
C1292       C  0.99168001  0.48958346  0.80572108    -0.09800
C1293       C  0.00053269  0.49185788  0.81942016    -0.28600
N1294       N  0.05700328  0.50751184  0.81854485    -0.45200
C1295       C  0.06539732  0.51054908  0.80530241    -0.04500
C1296       C  0.05653080  0.50752968  0.79184506    -0.21900
H1297       H  0.02798815  0.49904073  0.77613342     0.19900
H1298       H  0.02966566  0.49951731  0.83544332     0.18700
H1299       H  0.99659347  0.49066290  0.83146729     0.15000
H1300       H  0.05993012  0.50945288  0.77972676     0.14900
H1301       H  0.99717417  0.49047715  0.78100382     0.33000
H1302       H  0.06054349  0.50936776  0.83017664     0.35800
C1303       C  0.40503221  0.50038982  0.70166783     0.21400
C1304       C  0.39574878  0.49906204  0.71539127    -0.38500
C1305       C  0.39229021  0.48357801  0.72028526     0.20400
C1306       C  0.39763057  0.47057413  0.71201390     0.23000
C1307       C  0.40667239  0.47189432  0.69832212    -0.39000
C1308       C  0.41013081  0.48721594  0.69352391     0.21800
N1309       N  0.41013005  0.51362044  0.69449769    -0.32300
C1310       C  0.41835718  0.50863392  0.68169067    -0.09800
C1311       C  0.41855819  0.49229135  0.68075662    -0.28600
N1312       N  0.39277420  0.45720747  0.71877339    -0.45200
C1313       C  0.38419344  0.46149582  0.73151924    -0.04500
C1314       C  0.38361174  0.47791132  0.73292083    -0.21900
H1315       H  0.39157054  0.50927662  0.72177884     0.19900
H1316       H  0.41073234  0.46168419  0.69184328     0.18700
H1317       H  0.42414014  0.48506359  0.67184722     0.15000
H1318       H  0.37743092  0.48473861  0.74174159     0.14900
H1319       H  0.40795262  0.52523411  0.69792156     0.33000
H1320       H  0.39499685  0.44577896  0.71478549     0.35800
C1321       C  0.53754204  0.49884158  0.65102418     0.21400
C1322       C  0.52354759  0.50017218  0.65974094    -0.38500
C1323       C  0.51008176  0.50451862  0.65116872     0.20400
C1324       C  0.51043995  0.50714274  0.63510012     0.23000
C1325       C  0.52447354  0.50582507  0.62638667    -0.39000
C1326       C  0.53800726  0.50165883  0.63499687     0.21800
N1327       N  0.55187287  0.49470578  0.65639285    -0.32300
C1328       C  0.56158220  0.49491332  0.64371749    -0.09800
C1329       C  0.55337926  0.49927073  0.63015896    -0.28600
N1330       N  0.49620020  0.51190549  0.62988678    -0.45200
C1331       C  0.48681591  0.51255197  0.64279579    -0.04500
C1332       C  0.49504035  0.50792695  0.65624216    -0.21900
H1333       H  0.52321525  0.49820511  0.67231687     0.19900
H1334       H  0.52487154  0.50808311  0.61386640     0.18700
H1335       H  0.55790576  0.49996130  0.61827837     0.15000
H1336       H  0.49078896  0.50785490  0.66824875     0.14900
H1337       H  0.55477551  0.49149398  0.66789929     0.33000
H1338       H  0.49330576  0.51536982  0.61845670     0.35800
C1339       C  0.65710929  0.52737164  0.71961091     0.21400
C1340       C  0.65201804  0.51182943  0.71673718    -0.38500
C1341       C  0.64404789  0.50934370  0.70236092     0.20400
C1342       C  0.64152461  0.52143460  0.69175774     0.23000
C1343       C  0.64653807  0.53683310  0.69461905    -0.39000
C1344       C  0.65434165  0.53929855  0.70889306     0.21800
N1345       N  0.66526517  0.53292402  0.73210702    -0.32300
C1346       C  0.66763626  0.54844725  0.72912671    -0.09800
C1347       C  0.66089942  0.55278146  0.71483226    -0.28600
N1348       N  0.63405175  0.51621415  0.67888348    -0.45200
C1349       C  0.63164916  0.50064624  0.68113165    -0.04500
C1350       C  0.63766745  0.49585685  0.69570029    -0.21900
H1351       H  0.65418549  0.50238958  0.72498961     0.19900
H1352       H  0.64460589  0.54622329  0.68624666     0.18700
H1353       H  0.66111171  0.56424869  0.70931881     0.15000
H1354       H  0.63756349  0.48413034  0.70062847     0.14900
H1355       H  0.66922242  0.52653930  0.74183165     0.33000
H1356       H  0.63080913  0.52288228  0.66908213     0.35800
C1357       C  0.89436053  0.52435268  0.73028508     0.21400
C1358       C  0.90337441  0.51039320  0.73144889    -0.38500
C1359       C  0.90876636  0.50644127  0.74668098     0.20400
C1360       C  0.90538246  0.51575236  0.75962448     0.23000
C1361       C  0.89634565  0.52952342  0.75849408    -0.39000
C1362       C  0.89101613  0.53343099  0.74339951     0.21800
N1363       N  0.88861674  0.53129548  0.71715721    -0.32300
C1364       C  0.88172564  0.54491438  0.72206340    -0.09800
C1365       C  0.88288989  0.54649147  0.73835752    -0.28600
N1366       N  0.91206943  0.50989167  0.77267641    -0.45200
C1367       C  0.91979465  0.49662853  0.76826511    -0.04500
C1368       C  0.91801505  0.49402678  0.75206671    -0.21900
H1369       H  0.90622232  0.50331051  0.72123996     0.19900
H1370       H  0.89390943  0.53686876  0.76862873     0.18700
H1371       H  0.87885674  0.55624853  0.74551629     0.15000
H1372       H  0.92289935  0.48447096  0.74517860     0.14900
H1373       H  0.88981583  0.52733123  0.70557588     0.33000
H1374       H  0.91141460  0.51468101  0.78398937     0.35800
C1375       C  0.79221928  0.59263738  0.72228593     0.21400
C1376       C  0.77942690  0.60188527  0.72749128    -0.38500
C1377       C  0.76496507  0.59392301  0.72919889     0.20400
C1378       C  0.76351355  0.57798607  0.72612600     0.23000
C1379       C  0.77620323  0.56883114  0.72087349    -0.39000
C1380       C  0.79051849  0.57676979  0.71902539     0.21800
N1381       N  0.80714166  0.59729245  0.71939896    -0.32300
C1382       C  0.81483058  0.58425906  0.71417438    -0.09800
C1383       C  0.80482733  0.57129034  0.71377835    -0.28600
N1384       N  0.74880214  0.57300664  0.72905337    -0.45200
C1385       C  0.74065014  0.58583502  0.73387816    -0.04500
C1386       C  0.75030397  0.59916393  0.73412874    -0.21900
H1387       H  0.78062730  0.61431813  0.72998315     0.19900
H1388       H  0.77500387  0.55640000  0.71837059     0.18700
H1389       H  0.80759087  0.55947671  0.70986285     0.15000
H1390       H  0.74717916  0.61091170  0.73796785     0.14900
H1391       H  0.81168200  0.60866001  0.72047818     0.33000
H1392       H  0.74462140  0.56149292  0.72809723     0.35800
C1393       C  0.02438394  0.16438736  0.48959284     0.21400
C1394       C  0.02757875  0.15560893  0.47591100    -0.38500
C1395       C  0.03141980  0.16441937  0.46247113     0.20400
C1396       C  0.03219823  0.18068660  0.46274687     0.23000
C1397       C  0.02897639  0.18943432  0.47635332    -0.39000
C1398       C  0.02495525  0.18066635  0.48967969     0.21800
N1399       N  0.01963137  0.15894805  0.50368579    -0.32300
C1400       C  0.01692338  0.17191020  0.51263254    -0.09800
C1401       C  0.02020624  0.18562961  0.50432312    -0.28600
N1402       N  0.03642264  0.18631088  0.44863422    -0.45200
C1403       C  0.03828692  0.17357589  0.43921469    -0.04500
C1404       C  0.03522168  0.15968020  0.44738531    -0.21900
H1405       H  0.02693490  0.14289507  0.47569467     0.19900
H1406       H  0.02935776  0.20216202  0.47649443     0.18700
H1407       H  0.01869129  0.19765132  0.50827849     0.15000
H1408       H  0.03622809  0.14774185  0.44304340     0.14900
H1409       H  0.01758312  0.14723151  0.50676192     0.33000
H1410       H  0.03827287  0.19808683  0.44568198     0.35800
C1411       C  0.97710306  0.37810428  0.83680920     0.21400
C1412       C  0.96598628  0.38381162  0.82594274    -0.38500
C1413       C  0.96878924  0.39898846  0.82012646     0.20400
C1414       C  0.98174244  0.40773604  0.82481160     0.23000
C1415       C  0.99288660  0.40200482  0.83561860    -0.39000
C1416       C  0.99003382  0.38688833  0.84147906     0.21800
N1417       N  0.97612483  0.36483985  0.84528558    -0.32300
C1418       C  0.98836229  0.36527411  0.85556214    -0.09800
C1419       C  0.99743916  0.37876023  0.85343768    -0.28600
N1420       N  0.98056538  0.42253027  0.81950080    -0.45200
C1421       C  0.96670677  0.42336486  0.81154259    -0.04500
C1422       C  0.95914286  0.40880529  0.81139186    -0.21900
H1423       H  0.95543775  0.37728605  0.82296279     0.19900
H1424       H  0.00253234  0.40918105  0.83988224     0.18700
H1425       H  0.00746451  0.38257120  0.86035640     0.15000
H1426       H  0.94738107  0.40625603  0.80713047     0.14900
H1427       H  0.96714216  0.35643949  0.84473675     0.33000
H1428       H  0.98804924  0.43187357  0.82233647     0.35800
C1429       C  0.02318926  0.32327760  0.96098644     0.21400
C1430       C  0.02750323  0.31356107  0.97361076    -0.38500
C1431       C  0.03005562  0.32124966  0.98800124     0.20400
C1432       C  0.02827325  0.33735837  0.98969757     0.23000
C1433       C  0.02414331  0.34709304  0.97701334    -0.39000
C1434       C  0.02173362  0.33942760  0.96258309     0.21800
N1435       N  0.01945916  0.31875887  0.94631617    -0.32300
C1436       C  0.01568268  0.33210929  0.93847556    -0.09800
C1437       C  0.01706510  0.34528749  0.94818017    -0.28600
N1438       N  0.03152241  0.34182334  0.00452056    -0.45200
C1439       C  0.03564687  0.32852120  0.01227050    -0.04500
C1440       C  0.03485164  0.31542137  0.00236246    -0.21900
H1441       H  0.02873817  0.30094649  0.97232541     0.19900
H1442       H  0.02284339  0.35969864  0.97830631     0.18700
H1443       H  0.01424241  0.35737279  0.94532169     0.15000
H1444       H  0.03786051  0.30336443  0.00515815     0.14900
H1445       H  0.01902157  0.30723835  0.94202861     0.33000
H1446       H  0.03159773  0.35331255  0.00892587     0.35800
C1447       C  0.03223833  0.22982246  0.58991474     0.21400
C1448       C  0.03375386  0.24448469  0.59751356    -0.38500
C1449       C  0.04914954  0.24865750  0.60215035     0.20400
C1450       C  0.06199148  0.23899828  0.59920702     0.23000
C1451       C  0.06050296  0.22446346  0.59154557    -0.39000
C1452       C  0.04515988  0.22021794  0.58717616     0.21800
N1453       N  0.01886706  0.22275614  0.58502331    -0.32300
C1454       C  0.02338925  0.20853228  0.57929538    -0.09800
C1455       C  0.03968251  0.20655530  0.58045817    -0.28600
N1456       N  0.07507921  0.24482666  0.60588886    -0.45200
C1457       C  0.07065419  0.25821833  0.61336682    -0.04500
C1458       C  0.05457767  0.26118139  0.61110612    -0.21900
H1459       H  0.02363747  0.25182391  0.60012637     0.19900
H1460       H  0.07050011  0.21673799  0.58967184     0.18700
H1461       H  0.04658535  0.19641217  0.57694274     0.15000
H1462       H  0.04764426  0.27064118  0.61612492     0.14900
H1463       H  0.00738984  0.22720643  0.58575049     0.33000
H1464       H  0.08624886  0.23960128  0.60596662     0.35800
C1465       C  0.12402245  0.34129049  0.68452563     0.21400
C1466       C  0.13562621  0.34596302  0.69535639    -0.38500
C1467       C  0.14117417  0.36138448  0.69379138     0.20400
C1468       C  0.13555285  0.37144411  0.68229582     0.23000
C1469       C  0.12386429  0.36678834  0.67145377    -0.39000
C1470       C  0.11830450  0.35128217  0.67299906     0.21800
N1471       N  0.11893165  0.32657476  0.68206583    -0.32300
C1472       C  0.11016559  0.32694605  0.66872211    -0.09800
C1473       C  0.10910603  0.34228186  0.66291971    -0.28600
N1474       N  0.14377411  0.38496832  0.68239292    -0.45200
C1475       C  0.15473213  0.38347101  0.69397458    -0.04500
C1476       C  0.15340647  0.36893863  0.70141277    -0.21900
H1477       H  0.14064037  0.33785562  0.70380735     0.19900
H1478       H  0.12005657  0.37437173  0.66196067     0.18700
H1479       H  0.10417623  0.34592976  0.65175298     0.15000
H1480       H  0.16090682  0.36421863  0.71058038     0.14900
H1481       H  0.12262725  0.31654971  0.68815410     0.33000
H1482       H  0.14246231  0.39437563  0.67460477     0.35800
C1483       C  0.04706416  0.25583241  0.84525319     0.21400
C1484       C  0.03130545  0.25950325  0.84912765    -0.38500
C1485       C  0.02909139  0.27312515  0.85837086     0.20400
C1486       C  0.04164505  0.28228918  0.86333092     0.23000
C1487       C  0.05730815  0.27852507  0.85967980    -0.39000
C1488       C  0.05947898  0.26505882  0.85043363     0.21800
N1489       N  0.05238646  0.24419469  0.83577844    -0.32300
C1490       C  0.06825918  0.24625586  0.83491782    -0.09800
C1491       C  0.07304085  0.25905569  0.84398468    -0.28600
N1492       N  0.03653235  0.29507256  0.87109487    -0.45200
C1493       C  0.02057480  0.29412358  0.87125735    -0.04500
C1494       C  0.01544733  0.28053079  0.86351485    -0.21900
H1495       H  0.02148602  0.25255686  0.84488959     0.19900
H1496       H  0.06708381  0.28585994  0.86333475     0.18700
H1497       H  0.08487439  0.26365829  0.84529295     0.15000
H1498       H  0.00339698  0.27684792  0.86149815     0.14900
H1499       H  0.04563682  0.23575728  0.82988656     0.33000
H1500       H  0.04349908  0.30403716  0.87584184     0.35800
C1501       C  0.11297303  0.24851552  0.73889597     0.21400
C1502       C  0.12212244  0.24932717  0.72508421    -0.38500
C1503       C  0.11378142  0.25237482  0.71107539     0.20400
C1504       C  0.09758354  0.25446128  0.71092238     0.23000
C1505       C  0.08845941  0.25359584  0.72467004    -0.39000
C1506       C  0.09676747  0.25051894  0.73861414     0.21800
N1507       N  0.11789839  0.24493360  0.75354501    -0.32300
C1508       C  0.10470365  0.24438321  0.76258428    -0.09800
C1509       C  0.09132275  0.24797250  0.75367845    -0.28600
N1510       N  0.09253073  0.25821438  0.69642391    -0.45200
C1511       C  0.10555445  0.25872316  0.68718562    -0.04500
C1512       C  0.11906215  0.25490925  0.69586474    -0.21900
H1513       H  0.13479773  0.24774293  0.72524260     0.19900
H1514       H  0.07578555  0.25520199  0.72451321     0.18700
H1515       H  0.07914276  0.24777041  0.75749900     0.15000
H1516       H  0.13118602  0.25512714  0.69187751     0.14900
H1517       H  0.12939106  0.24200138  0.75695686     0.33000
H1518       H  0.08100014  0.26117597  0.69321135     0.35800
C1519       C  0.00127661  0.25640606  0.10550819     0.21400
C1520       C  0.01629469  0.25756808  0.09843662    -0.38500
C1521       C  0.02041428  0.27260951  0.09280000     0.20400
C1522       C  0.01028484  0.28533097  0.09422828     0.23000
C1523       C  0.99540346  0.28416444  0.10114244    -0.39000
C1524       C  0.99132172  0.26928401  0.10664712     0.21800
N1525       N  0.99451014  0.24366497  0.11212539    -0.32300
C1526       C  0.98022576  0.24867862  0.11742208    -0.09800
C1527       C  0.97785113  0.26451808  0.11409292    -0.28600
N1528       N  0.01659061  0.29825748  0.08794243    -0.45200
C1529       C  0.03087134  0.29395890  0.08228047    -0.04500
C1530       C  0.03380937  0.27800365  0.08511789    -0.21900
H1531       H  0.02414954  0.24756599  0.09741566     0.19900
H1532       H  0.98754435  0.29417041  0.10216492     0.18700
H1533       H  0.96768894  0.27168900  0.11700778     0.15000
H1534       H  0.04413445  0.27126437  0.08180240     0.14900
H1535       H  0.99932585  0.23238835  0.11311702     0.33000
H1536       H  0.01134149  0.30937674  0.08736250     0.35800
C1537       C  0.99420335  0.23980955  0.34699480     0.21400
C1538       C  0.99582061  0.22580037  0.35539188    -0.38500
C1539       C  0.01047644  0.22331627  0.36245542     0.20400
C1540       C  0.02272406  0.23401345  0.36146563     0.23000
C1541       C  0.02103208  0.24827312  0.35307399    -0.39000
C1542       C  0.00623085  0.25072961  0.34578166     0.21800
N1543       N  0.98134923  0.24455932  0.33920973    -0.32300
C1544       C  0.98485846  0.25874381  0.33296897    -0.09800
C1545       C  0.00040515  0.26303614  0.33666084    -0.28600
N1546       N  0.03587249  0.22804049  0.36825419    -0.45200
C1547       C  0.03185853  0.21337042  0.37319995    -0.04500
C1548       C  0.01606759  0.21021661  0.37000093    -0.21900
H1549       H  0.98642141  0.21721639  0.35602264     0.19900
H1550       H  0.03059797  0.25661773  0.35199875     0.18700
H1551       H  0.00645684  0.27375281  0.33343389     0.15000
H1552       H  0.00973511  0.19937809  0.37213004     0.14900
H1553       H  0.97062646  0.23855531  0.33843730     0.33000
H1554       H  0.04703688  0.23322235  0.36870257     0.35800
C1555       C  0.95179063  0.25442737  0.24022419     0.21400
C1556       C  0.96099441  0.25115165  0.22692358    -0.38500
C1557       C  0.95274208  0.24967253  0.21271734     0.20400
C1558       C  0.93653076  0.25142503  0.21173644     0.23000
C1559       C  0.92726774  0.25464746  0.22511566    -0.39000
C1560       C  0.93554663  0.25599933  0.23942296     0.21800
N1561       N  0.95699516  0.25706972  0.25490737    -0.32300
C1562       C  0.94402743  0.26031208  0.26364216    -0.09800
C1563       C  0.93036356  0.25962440  0.25443817    -0.28600
N1564       N  0.93153793  0.24879515  0.19690211    -0.45200
C1565       C  0.94467525  0.24514131  0.18850231    -0.04500
C1566       C  0.95810598  0.24569684  0.19796534    -0.21900
H1567       H  0.97368108  0.24980295  0.22759948     0.19900
H1568       H  0.91457741  0.25595481  0.22444645     0.18700
H1569       H  0.91842916  0.26243993  0.25800866     0.15000
H1570       H  0.97009391  0.24276698  0.19466953     0.14900
H1571       H  0.96874652  0.25731683  0.25862874     0.33000
H1572       H  0.91986557  0.24864568  0.19293942     0.35800
C1573       C  0.59561421  0.24444469  0.23943813     0.21400
C1574       C  0.58640748  0.24636508  0.22586483    -0.38500
C1575       C  0.59460424  0.25086149  0.21229598     0.20400
C1576       C  0.61079818  0.25302572  0.21215874     0.23000
C1577       C  0.62003410  0.25101102  0.22576324    -0.39000
C1578       C  0.61178088  0.24675445  0.23943123     0.21800
N1579       N  0.59054821  0.24047456  0.25384071    -0.32300
C1580       C  0.60353595  0.24030104  0.26314654    -0.09800
C1581       C  0.61703656  0.24418876  0.25460492    -0.28600
N1582       N  0.61554076  0.25848603  0.19808892    -0.45200
C1583       C  0.60222688  0.26010243  0.18936506    -0.04500
C1584       C  0.58897327  0.25528264  0.19776700    -0.21900
H1585       H  0.57371795  0.24492742  0.22597957     0.19900
H1586       H  0.63263963  0.25304262  0.22580499     0.18700
H1587       H  0.62909151  0.24457679  0.25880501     0.15000
H1588       H  0.57675777  0.25588452  0.19407689     0.14900
H1589       H  0.57897852  0.23776603  0.25708917     0.33000
H1590       H  0.62696088  0.26193859  0.19498887     0.35800
C1591       C  0.52893990  0.27649867  0.35551919     0.21400
C1592       C  0.53073710  0.26106471  0.34962199    -0.38500
C1593       C  0.54548255  0.25758227  0.34274574     0.20400
C1594       C  0.55736219  0.26870137  0.34187401     0.23000
C1595       C  0.55558358  0.28399787  0.34768551    -0.39000
C1596       C  0.54098275  0.28742462  0.35450230     0.21800
N1597       N  0.51635935  0.28277639  0.36301220    -0.32300
C1598       C  0.52060533  0.29773200  0.36677376    -0.09800
C1599       C  0.53582035  0.30100988  0.36155275    -0.28600
N1600       N  0.57027451  0.26267087  0.33510728    -0.45200
C1601       C  0.56681586  0.24753813  0.33155304    -0.04500
C1602       C  0.55139581  0.24384208  0.33610561    -0.21900
H1603       H  0.52143965  0.25239823  0.35046349     0.19900
H1604       H  0.56498232  0.29258513  0.34708233     0.18700
H1605       H  0.54236775  0.31184172  0.36300607     0.15000
H1606       H  0.54541400  0.23267211  0.33485765     0.14900
H1607       H  0.50569695  0.27719893  0.36560202     0.33000
H1608       H  0.58090577  0.26853633  0.33309333     0.35800
C1609       C  0.56075129  0.39035916  0.61080780     0.21400
C1610       C  0.55770771  0.40591429  0.61543152    -0.38500
C1611       C  0.56871790  0.41259280  0.62580795     0.20400
C1612       C  0.58188274  0.40450498  0.63112229     0.23000
C1613       C  0.58484152  0.38888347  0.62660051    -0.39000
C1614       C  0.57374041  0.38213670  0.61633074     0.21800
N1615       N  0.55313130  0.38204394  0.59965952    -0.32300
C1616       C  0.56136463  0.36845130  0.59804551    -0.09800
C1617       C  0.57412757  0.36798616  0.60842954    -0.28600
N1618       N  0.59165745  0.41419109  0.63904995    -0.45200
C1619       C  0.58469008  0.42854756  0.63860030    -0.04500
C1620       C  0.57026732  0.42790999  0.63069594    -0.21900
H1621       H  0.54797175  0.41262488  0.61061808     0.19900
H1622       H  0.59544919  0.38271339  0.63013054     0.18700
H1623       H  0.58321121  0.35904864  0.60916812     0.15000
H1624       H  0.56270936  0.43769992  0.62755981     0.14900
H1625       H  0.54353913  0.38578912  0.59289569     0.33000
H1626       H  0.60296647  0.41153271  0.64319071     0.35800
C1627       C  0.52453229  0.34239573  0.49109228     0.21400
C1628       C  0.52087270  0.35156105  0.47777064    -0.38500
C1629       C  0.51870970  0.34321928  0.46358743     0.20400
C1630       C  0.51976159  0.32698490  0.46286400     0.23000
C1631       C  0.52337659  0.31785733  0.47613296    -0.39000
C1632       C  0.52585636  0.32618831  0.49018697     0.21800
N1633       N  0.52843207  0.34750376  0.50562331    -0.32300
C1634       C  0.53255431  0.33447303  0.51390233    -0.09800
C1635       C  0.53095104  0.32096696  0.50467524    -0.28600
N1636       N  0.51704127  0.32179687  0.44815509    -0.45200
C1637       C  0.51438678  0.33477671  0.43929727    -0.04500
C1638       C  0.51537188  0.34840620  0.44850394    -0.21900
H1639       H  0.52015733  0.36426453  0.47832375     0.19900
H1640       H  0.52457586  0.30519434  0.47547025     0.18700
H1641       H  0.53392538  0.30900780  0.50788840     0.15000
H1642       H  0.51333343  0.36041015  0.44478662     0.14900
H1643       H  0.52915012  0.35919188  0.50939225     0.33000
H1644       H  0.51676584  0.31008859  0.44440218     0.35800
C1645       C  0.50412092  0.25919576  0.60749006     0.21400
C1646       C  0.51923475  0.26168308  0.60104051    -0.38500
C1647       C  0.52177218  0.27660769  0.59431774     0.20400
C1648       C  0.51010330  0.28803122  0.59411157     0.23000
C1649       C  0.49513617  0.28558164  0.60051110    -0.39000
C1650       C  0.49264156  0.27079754  0.60716836     0.21800
N1651       N  0.49857431  0.24616419  0.61464777    -0.32300
C1652       C  0.48350902  0.24968685  0.61884927    -0.09800
C1653       C  0.47946832  0.26491013  0.61435223    -0.28600
N1654       N  0.51523527  0.30116242  0.58717322    -0.45200
C1655       C  0.53031848  0.29825581  0.58283849    -0.04500
C1656       C  0.53490925  0.28303608  0.58707559    -0.21900
H1657       H  0.52831250  0.25271494  0.60125450     0.19900
H1658       H  0.48607368  0.29457479  0.60033951     0.18700
H1659       H  0.46833639  0.27091391  0.61616802     0.15000
H1660       H  0.54625259  0.27748744  0.58516669     0.14900
H1661       H  0.50462419  0.23563009  0.61659360     0.33000
H1662       H  0.50881453  0.31153139  0.58548831     0.35800
C1663       C  0.44015964  0.25510289  0.73916685     0.21400
C1664       C  0.43100299  0.25201112  0.72575933    -0.38500
C1665       C  0.43939742  0.25058641  0.71160981     0.20400
C1666       C  0.45565923  0.25205483  0.71090863     0.23000
C1667       C  0.46477458  0.25534788  0.72426218    -0.39000
C1668       C  0.45639010  0.25678762  0.73837111     0.21800
N1669       N  0.43502285  0.25742174  0.75394205    -0.32300
C1670       C  0.44808934  0.26078415  0.76250178    -0.09800
C1671       C  0.46162959  0.26039653  0.75322979    -0.28600
N1672       N  0.46094789  0.24890385  0.69636244    -0.45200
C1673       C  0.44796259  0.24543996  0.68773449    -0.04500
C1674       C  0.43427853  0.24655302  0.69676341    -0.21900
H1675       H  0.41831910  0.25064296  0.72632739     0.19900
H1676       H  0.47748111  0.25651778  0.72373821     0.18700
H1677       H  0.47358388  0.26321217  0.75672925     0.15000
H1678       H  0.42236844  0.24358546  0.69324737     0.14900
H1679       H  0.42330548  0.25757465  0.75777658     0.33000
H1680       H  0.47271317  0.24834802  0.69273232     0.35800
C1681       C  0.42937753  0.35318159  0.78506063     0.21400
C1682       C  0.42448359  0.36853293  0.78890430    -0.38500
C1683       C  0.41366260  0.37549771  0.77845041     0.20400
C1684       C  0.40817434  0.36776704  0.76517514     0.23000
C1685       C  0.41314432  0.35252625  0.76127735    -0.39000
C1686       C  0.42388817  0.34557557  0.77171543     0.21800
N1687       N  0.43795206  0.34326362  0.79402821    -0.32300
C1688       C  0.43769982  0.32924324  0.78638005    -0.09800
C1689       C  0.42921669  0.33033033  0.77235306    -0.28600
N1690       N  0.39688686  0.37622923  0.75796016    -0.45200
C1691       C  0.39506873  0.38943279  0.76671739    -0.04500
C1692       C  0.40544040  0.38949100  0.77951336    -0.21900
H1693       H  0.42819175  0.37431341  0.79964475     0.19900
H1694       H  0.40835175  0.34621423  0.75128747     0.18700
H1695       H  0.42613909  0.32084343  0.76440789     0.15000
H1696       H  0.40629017  0.39822703  0.78875855     0.14900
H1697       H  0.44247008  0.34550203  0.80524814     0.33000
H1698       H  0.39036239  0.37292619  0.74805686     0.35800
C1699       C  0.52761817  0.22976317  0.09497681     0.21400
C1700       C  0.52851942  0.24375771  0.10387176    -0.38500
C1701       C  0.54369363  0.24800550  0.10917211     0.20400
C1702       C  0.55685797  0.23895147  0.10579427     0.23000
C1703       C  0.55598746  0.22508824  0.09688546    -0.39000
C1704       C  0.54089811  0.22084606  0.09168731     0.21800
N1705       N  0.51460066  0.22281841  0.08902190    -0.32300
C1706       C  0.51970356  0.20936481  0.08202304    -0.09800
C1707       C  0.53603196  0.20779619  0.08342797    -0.28600
N1708       N  0.56980133  0.24509920  0.11246139    -0.45200
C1709       C  0.56503060  0.25824109  0.12017031    -0.04500
C1710       C  0.54877574  0.26052450  0.11837303    -0.21900
H1711       H  0.51816019  0.25068407  0.10665513     0.19900
H1712       H  0.56629652  0.21796026  0.09441981     0.18700
H1713       H  0.54334133  0.19823256  0.07917991     0.15000
H1714       H  0.54164309  0.26988117  0.12330674     0.14900
H1715       H  0.50296437  0.22679239  0.08994442     0.33000
H1716       H  0.58124856  0.24054982  0.11186234     0.35800
C1717       C  0.50688051  0.22106826  0.86346943     0.21400
C1718       C  0.49135738  0.22446790  0.85898199    -0.38500
C1719       C  0.48941564  0.23764225  0.84935393     0.20400
C1720       C  0.50193218  0.24684952  0.84446109     0.23000
C1721       C  0.51757570  0.24343872  0.84901193    -0.39000
C1722       C  0.51955033  0.23017482  0.85876836     0.21800
N1723       N  0.51175339  0.20868447  0.87192249    -0.32300
C1724       C  0.52768099  0.20972936  0.87270631    -0.09800
C1725       C  0.53303505  0.22309410  0.86476174    -0.28600
N1726       N  0.49677527  0.25855085  0.83502770    -0.45200
C1727       C  0.48089460  0.25662305  0.83401601    -0.04500
C1728       C  0.47595383  0.24372257  0.84277975    -0.21900
H1729       H  0.48150483  0.21720728  0.86252936     0.19900
H1730       H  0.52746935  0.25043188  0.84508036     0.18700
H1731       H  0.54513956  0.22670393  0.86298087     0.15000
H1732       H  0.46405146  0.23930525  0.84407516     0.14900
H1733       H  0.50466476  0.19975047  0.87649256     0.33000
H1734       H  0.50359842  0.26715490  0.82951990     0.35800
C1735       C  0.52669276  0.16445702  0.96243942     0.21400
C1736       C  0.52169539  0.15538771  0.97531305    -0.38500
C1737       C  0.52017927  0.16345964  0.98968513     0.20400
C1738       C  0.52325857  0.17938952  0.99109207     0.23000
C1739       C  0.52841178  0.18842365  0.97827173    -0.39000
C1740       C  0.53002366  0.18032670  0.96393584     0.21800
N1741       N  0.52921010  0.15954505  0.94756839    -0.32300
C1742       C  0.53431438  0.17235103  0.93956627    -0.09800
C1743       C  0.53496283  0.18552528  0.94939887    -0.28600
N1744       N  0.51996622  0.18448384  0.00572723    -0.45200
C1745       C  0.51486349  0.17169008  0.01374280    -0.04500
C1746       C  0.51496039  0.15832917  0.00417313    -0.21900
H1747       H  0.51905573  0.14298260  0.97419565     0.19900
H1748       H  0.53085095  0.20087517  0.97934429     0.18700
H1749       H  0.53888120  0.19725122  0.94638926     0.15000
H1750       H  0.51085387  0.14666076  0.00715116     0.14900
H1751       H  0.52802466  0.14808308  0.94325209     0.33000
H1752       H  0.52066048  0.19603965  0.00987270     0.35800
C1753       C  0.06518817  0.11641871  0.34786506     0.21400
C1754       C  0.06207096  0.10052389  0.34475597    -0.38500
C1755       C  0.07115327  0.09357328  0.33281991     0.20400
C1756       C  0.08254739  0.10175949  0.32454126     0.23000
C1757       C  0.08561464  0.11774501  0.32762302    -0.39000
C1758       C  0.07649321  0.12473005  0.33959714     0.21800
N1759       N  0.05895911  0.12529520  0.35941706    -0.32300
C1760       C  0.06632344  0.13940185  0.35856190    -0.09800
C1761       C  0.07730599  0.13953106  0.34630250    -0.28600
N1762       N  0.09087915  0.09191481  0.31521139    -0.45200
C1763       C  0.08486972  0.07735828  0.31780291    -0.04500
C1764       C  0.07238724  0.07803740  0.32849421    -0.21900
H1765       H  0.05368658  0.09384846  0.35163133     0.19900
H1766       H  0.09489603  0.12408564  0.32163702     0.18700
H1767       H  0.08527224  0.14895100  0.34316200     0.15000
H1768       H  0.06604766  0.06823420  0.33356314     0.14900
H1769       H  0.05061782  0.12178112  0.36773967     0.33000
H1770       H  0.10088644  0.09470201  0.30860150     0.35800
C1771       C  0.00983693  0.00035148  0.31571992     0.21400
C1772       C  0.02377481  0.00128307  0.32471062    -0.38500
C1773       C  0.03770533  0.00436928  0.31626910     0.20400
C1774       C  0.03770401  0.00651488  0.30013278     0.23000
C1775       C  0.02382110  0.00554000  0.29115194    -0.39000
C1776       C  0.00994858  0.00229508  0.29955778     0.21800
N1777       N  0.99521055  0.99669889  0.32077447    -0.32300
C1778       C  0.98600782  0.99604520  0.30769382    -0.09800
C1779       C  0.99480474  0.99956875  0.29427352    -0.28600
N1780       N  0.05226909  0.01002450  0.29497399    -0.45200
C1781       C  0.06167396  0.01015795  0.30789370    -0.04500
C1782       C  0.05304238  0.00652648  0.32139765    -0.21900
H1783       H  0.02378970  0.99964192  0.33733512     0.19900
H1784       H  0.02383755  0.00707477  0.27851164     0.18700
H1785       H  0.99081586  0.99937119  0.28217271     0.15000
H1786       H  0.05722506  0.00643190  0.33343371     0.14900
H1787       H  0.99191044  0.99388031  0.33226564     0.33000
H1788       H  0.05548389  0.01283005  0.28345330     0.35800
C1789       C  0.14256185  0.98462198  0.26072106     0.21400
C1790       C  0.14782825  0.96925338  0.25792043    -0.38500
C1791       C  0.15553111  0.96672069  0.24359221     0.20400
C1792       C  0.15789750  0.97854127  0.23269178     0.23000
C1793       C  0.15263012  0.99409555  0.23553789    -0.39000
C1794       C  0.14482712  0.99666975  0.25003822     0.21800
N1795       N  0.13496504  0.98980694  0.27356716    -0.32300
C1796       C  0.13224384  0.00535021  0.27133235    -0.09800
C1797       C  0.13821411  0.01013175  0.25670931    -0.28600
N1798       N  0.16554139  0.97279585  0.21992351    -0.45200
C1799       C  0.16798977  0.95725053  0.22291041    -0.04500
C1800       C  0.16191311  0.95314609  0.23754902    -0.21900
H1801       H  0.14603972  0.95988826  0.26633916     0.19900
H1802       H  0.15444460  0.00345563  0.22712356     0.18700
H1803       H  0.13784093  0.02181855  0.25169946     0.15000
H1804       H  0.16213124  0.94167861  0.24306140     0.14900
H1805       H  0.13183089  0.98310522  0.28336525     0.33000
H1806       H  0.16891724  0.97902167  0.20989702     0.35800
C1807       C  0.26235614  0.91283420  0.22032402     0.21400
C1808       C  0.27548763  0.90360313  0.22446513    -0.38500
C1809       C  0.28973434  0.91179826  0.22646362     0.20400
C1810       C  0.29075899  0.92794380  0.22456631     0.23000
C1811       C  0.27770546  0.93712109  0.22029053    -0.39000
C1812       C  0.26351420  0.92894387  0.21827496     0.21800
N1813       N  0.24746943  0.90795727  0.21773309    -0.32300
C1814       C  0.23916580  0.92108929  0.21398871    -0.09800
C1815       C  0.24878595  0.93437302  0.21420052    -0.28600
N1816       N  0.30525741  0.93310350  0.22824477    -0.45200
C1817       C  0.31357207  0.92016419  0.23244610    -0.04500
C1818       C  0.30436642  0.90661413  0.23135795    -0.21900
H1819       H  0.27463017  0.89102723  0.22622799     0.19900
H1820       H  0.27848319  0.94975018  0.21889362     0.18700
H1821       H  0.24550425  0.94635713  0.21139678     0.15000
H1822       H  0.30762955  0.89476964  0.23471656     0.14900
H1823       H  0.24330653  0.89640337  0.21812503     0.33000
H1824       H  0.30907800  0.94477934  0.22850914     0.35800
C1825       C  0.40590317  0.99495546  0.20019294     0.21400
C1826       C  0.40108711  0.99239526  0.21583025    -0.38500
C1827       C  0.39415937  0.97768372  0.21891043     0.20400
C1828       C  0.39224926  0.96643766  0.20726570     0.23000
C1829       C  0.39699114  0.96899098  0.19167432    -0.39000
C1830       C  0.40387582  0.98364549  0.18862689     0.21800
N1831       N  0.41302517  0.00780598  0.19424411    -0.32300
C1832       C  0.41555710  0.00456658  0.17880951    -0.09800
C1833       C  0.40995539  0.98963628  0.17489477    -0.28600
N1834       N  0.38531306  0.95351521  0.21306244    -0.45200
C1835       C  0.38261596  0.95647529  0.22851360    -0.04500
C1836       C  0.38802129  0.97144865  0.23265230    -0.21900
H1837       H  0.40263385  0.00119182  0.22492162     0.19900
H1838       H  0.39546695  0.96018260  0.18258197     0.18700
H1839       H  0.41047433  0.98385146  0.16354461     0.15000
H1840       H  0.38740466  0.97705214  0.24408004     0.14900
H1841       H  0.41614735  0.01803024  0.20032636     0.33000
H1842       H  0.38236375  0.94334409  0.20679973     0.35800
C1843       C  0.47487621  0.09560036  0.12407458     0.21400
C1844       C  0.48663313  0.10132372  0.11404742    -0.38500
C1845       C  0.48484934  0.11691747  0.10919990     0.20400
C1846       C  0.47232110  0.12619524  0.11406553     0.23000
C1847       C  0.46048987  0.12043914  0.12415348    -0.39000
C1848       C  0.46224140  0.10471524  0.12897977     0.21800
N1849       N  0.47306959  0.08067575  0.12864716    -0.32300
C1850       C  0.45916944  0.08003650  0.13645033    -0.09800
C1851       C  0.45206673  0.09488090  0.13712319    -0.28600
N1852       N  0.47246532  0.14003245  0.10644471    -0.45200
C1853       C  0.48498605  0.13938961  0.09650766    -0.04500
C1854       C  0.49311140  0.12523088  0.09803593    -0.21900
H1855       H  0.49602828  0.09387848  0.10964659     0.19900
H1856       H  0.45027889  0.12742035  0.12733030     0.18700
H1857       H  0.44046112  0.09776228  0.14160133     0.15000
H1858       H  0.50300864  0.12112023  0.09110119     0.14900
H1859       H  0.48037820  0.07121101  0.12568648     0.33000
H1860       H  0.46395001  0.14891995  0.10716401     0.35800
C1861       C  0.53853695  0.00227813  0.13817146     0.21400
C1862       C  0.52509521  0.00429670  0.12860158    -0.38500
C1863       C  0.51078444  0.00703262  0.13657888     0.20400
C1864       C  0.50997887  0.00766620  0.15283162     0.23000
C1865       C  0.52334340  0.00547814  0.16236668    -0.39000
C1866       C  0.53761373  0.00281256  0.15441430     0.21800
N1867       N  0.55336089  0.99877649  0.13356322    -0.32300
C1868       C  0.56187393  0.99680996  0.14697620    -0.09800
C1869       C  0.55245450  0.99945186  0.16019991    -0.28600
N1870       N  0.49528054  0.01128351  0.15758302    -0.45200
C1871       C  0.48656990  0.01302770  0.14430598    -0.04500
C1872       C  0.49579569  0.01029436  0.13093815    -0.21900
H1873       H  0.52573941  0.00382424  0.11589082     0.19900
H1874       H  0.52268378  0.00586741  0.17507943     0.18700
H1875       H  0.55576156  0.99804449  0.17242145     0.15000
H1876       H  0.49223545  0.01142341  0.11875883     0.14900
H1877       H  0.55719147  0.99680535  0.12204631     0.33000
H1878       H  0.49153474  0.01304735  0.16916250     0.35800
C1879       C  0.64684878  0.13896533  0.26573038     0.21400
C1880       C  0.64240770  0.15451353  0.26251206    -0.38500
C1881       C  0.63036290  0.16067559  0.27201475     0.20400
C1882       C  0.62320070  0.15204648  0.28382618     0.23000
C1883       C  0.62766379  0.13647610  0.28703442    -0.39000
C1884       C  0.63972914  0.13030668  0.27753256     0.21800
N1885       N  0.65867644  0.13077367  0.25905636    -0.32300
C1886       C  0.65906321  0.11679531  0.26666926    -0.09800
C1887       C  0.64742022  0.11605433  0.27823900    -0.28600
N1888       N  0.61347893  0.16120485  0.29240866    -0.45200
C1889       C  0.61476654  0.17580027  0.28619335    -0.04500
C1890       C  0.62496449  0.17584838  0.27331610    -0.21900
H1891       H  0.64837466  0.16153210  0.25373374     0.19900
H1892       H  0.62258451  0.12987268  0.29664901     0.18700
H1893       H  0.64522845  0.10655691  0.28640931     0.15000
H1894       H  0.62908034  0.18596314  0.26678472     0.14900
H1895       H  0.66625661  0.13459360  0.25017061     0.33000
H1896       H  0.60761190  0.15808379  0.30275593     0.35800
C1897       C  0.65792974  0.02421130  0.22222586     0.21400
C1898       C  0.64879777  0.01039798  0.22097388    -0.38500
C1899       C  0.64447852  0.00585249  0.20559306     0.20400
C1900       C  0.64909440  0.01438757  0.19254203     0.23000
C1901       C  0.65810344  0.02816603  0.19377991    -0.39000
C1902       C  0.66221081  0.03278160  0.20908623     0.21800
N1903       N  0.66329508  0.03124932  0.23544922    -0.32300
C1904       C  0.67086642  0.04446655  0.23063459    -0.09800
C1905       C  0.67035364  0.04580574  0.21427759    -0.28600
N1906       N  0.64299313  0.00818283  0.17934804    -0.45200
C1907       C  0.63420117  0.99566877  0.18385724    -0.04500
C1908       C  0.63493510  0.99371137  0.20019026    -0.21900
H1909       H  0.64507823  0.00385266  0.23122349     0.19900
H1910       H  0.66138806  0.03499647  0.18356157     0.18700
H1911       H  0.67529528  0.05509897  0.20713188     0.15000
H1912       H  0.62883779  0.98501908  0.20719236     0.14900
H1913       H  0.66169286  0.02745130  0.24701663     0.33000
H1914       H  0.64431623  0.01254765  0.16794288     0.35800
C1915       C  0.90537928  0.13977696  0.18548446     0.21400
C1916       C  0.90930202  0.15542772  0.18877888    -0.38500
C1917       C  0.92077366  0.16209128  0.17899796     0.20400
C1918       C  0.92781769  0.15389320  0.16676479     0.23000
C1919       C  0.92388455  0.13819154  0.16347708    -0.39000
C1920       C  0.91244464  0.13147990  0.17333408     0.21800
N1921       N  0.89395202  0.13121784  0.19227885    -0.32300
C1922       C  0.89372229  0.11738185  0.18436432    -0.09800
C1923       C  0.90514406  0.11705599  0.17255150    -0.28600
N1924       N  0.93688339  0.16352392  0.15804145    -0.45200
C1925       C  0.93534474  0.17794725  0.16470031    -0.04500
C1926       C  0.92561468  0.17741755  0.17790445    -0.21900
H1927       H  0.90334777  0.16215313  0.19783855     0.19900
H1928       H  0.92884803  0.13188382  0.15356738     0.18700
H1929       H  0.90724120  0.10782517  0.16400877     0.15000
H1930       H  0.92141993  0.18725564  0.18486123     0.14900
H1931       H  0.88633705  0.13481669  0.20125870     0.33000
H1932       H  0.94252808  0.16077486  0.14745573     0.35800
C1933       C  0.89200923  0.03751431  0.23874137     0.21400
C1934       C  0.89748572  0.03598563  0.25420409    -0.38500
C1935       C  0.90461308  0.02160529  0.25789660     0.20400
C1936       C  0.90627902  0.00956823  0.24703795     0.23000
C1937       C  0.90085906  0.01117142  0.23139178    -0.39000
C1938       C  0.89359446  0.02565338  0.22767153     0.21800
N1939       N  0.88459249  0.04999405  0.23260761    -0.32300
C1940       C  0.88132847  0.04627735  0.21745326    -0.09800
C1941       C  0.88676775  0.03113451  0.21384248    -0.28600
N1942       N  0.91335416  0.99699139  0.25376245    -0.45200
C1943       C  0.91617379  0.00117976  0.26896833    -0.04500
C1944       C  0.91087216  0.01644520  0.27189009    -0.21900
H1945       H  0.89615667  0.04530686  0.26280445     0.19900
H1946       H  0.90207405  0.00181780  0.22281873     0.18700
H1947       H  0.88584588  0.02500598  0.20270666     0.15000
H1948       H  0.91149557  0.02292044  0.28285441     0.14900
H1949       H  0.88187558  0.06048095  0.23845139     0.33000
H1950       H  0.91609618  0.98627810  0.24836968     0.35800
C1951       C  0.76315594  0.07452548  0.23016355     0.21400
C1952       C  0.77646816  0.06546110  0.22643084    -0.38500
C1953       C  0.78955262  0.07383663  0.22093914     0.20400
C1954       C  0.78948144  0.09004855  0.21940894     0.23000
C1955       C  0.77606189  0.09913413  0.22298523    -0.39000
C1956       C  0.76286804  0.09070949  0.22836079     0.21800
N1957       N  0.74935254  0.06930437  0.23580984    -0.32300
C1958       C  0.74006432  0.08217972  0.23746901    -0.09800
C1959       C  0.74805240  0.09579608  0.23292469    -0.28600
N1960       N  0.80348910  0.09513609  0.21400602    -0.45200
C1961       C  0.81242048  0.08202898  0.21198579    -0.04500
C1962       C  0.80411145  0.06853203  0.21611734    -0.21900
H1963       H  0.77662158  0.05279520  0.22771151     0.19900
H1964       H  0.77590689  0.11179675  0.22168013     0.18700
H1965       H  0.74374501  0.10778608  0.23328450     0.15000
H1966       H  0.80813343  0.05645213  0.21549770     0.14900
H1967       H  0.74644736  0.05767108  0.23847104     0.33000
H1968       H  0.80664919  0.10673548  0.21148010     0.35800
C1969       C  0.89942264  0.30211639  0.36496998     0.21400
C1970       C  0.89361344  0.31341111  0.37566023    -0.38500
C1971       C  0.87847852  0.31051312  0.38179503     0.20400
C1972       C  0.86986021  0.29737300  0.37747241     0.23000
C1973       C  0.87574293  0.28602263  0.36698203    -0.39000
C1974       C  0.89081761  0.28889557  0.36090631     0.21800
N1975       N  0.91263076  0.30297880  0.35623878    -0.32300
C1976       C  0.91237456  0.29027067  0.34652282    -0.09800
C1977       C  0.89902697  0.28111969  0.34922023    -0.28600
N1978       N  0.85498340  0.29850957  0.38272463    -0.45200
C1979       C  0.85392826  0.31247191  0.39039092    -0.04500
C1980       C  0.86847614  0.32018409  0.39038658    -0.21900
H1981       H  0.90000456  0.32411722  0.37827618     0.19900
H1982       H  0.86867890  0.27615836  0.36308070     0.18700
H1983       H  0.89536810  0.27070052  0.34286015     0.15000
H1984       H  0.87084617  0.33207032  0.39430641     0.14900
H1985       H  0.92094079  0.31205731  0.35635712     0.33000
H1986       H  0.84569348  0.29092633  0.37996823     0.35800
C1987       C  0.72356083  0.11458707  0.35127449     0.21400
C1988       C  0.71283974  0.10332753  0.34552631    -0.38500
C1989       C  0.71592885  0.09751016  0.33033600     0.20400
C1990       C  0.72875729  0.10258529  0.32165834     0.23000
C1991       C  0.73938010  0.11388096  0.32734879    -0.39000
C1992       C  0.73627230  0.11968937  0.34244650     0.21800
N1993       N  0.72261541  0.12273369  0.36481597    -0.32300
C1994       C  0.73469031  0.13318223  0.36447469    -0.09800
C1995       C  0.74352499  0.13158606  0.35075030    -0.28600
N1996       N  0.72815072  0.09682078  0.30699286    -0.45200
C1997       C  0.71474315  0.08819393  0.30606419    -0.04500
C1998       C  0.70688966  0.08808964  0.32051841    -0.21900
H1999       H  0.70249050  0.09987470  0.35211605     0.19900
H2000       H  0.74896494  0.11834146  0.32023576     0.18700
H2001       H  0.75347344  0.13863487  0.34704858     0.15000
H2002       H  0.69533828  0.08328637  0.32299150     0.14900
H2003       H  0.71388630  0.12172800  0.37344282     0.33000
H2004       H  0.73570607  0.09973670  0.29774121     0.35800
C2005       C  0.76956685  0.23865982  0.40474698     0.21400
C2006       C  0.77122766  0.25260821  0.41342173    -0.38500
C2007       C  0.77574049  0.26589701  0.40480821     0.20400
C2008       C  0.77831472  0.26537899  0.38873572     0.23000
C2009       C  0.77672584  0.25135870  0.38004252    -0.39000
C2010       C  0.77226039  0.23801183  0.38869509     0.21800
N2011       N  0.76481616  0.22463702  0.41016624    -0.32300
C2012       C  0.76440839  0.21492791  0.39751691    -0.09800
C2013       C  0.76908496  0.22279381  0.38388603    -0.28600
N2014       N  0.78299839  0.27953715  0.38343974    -0.45200
C2015       C  0.78363372  0.28904745  0.39627410    -0.04500
C2016       C  0.77909698  0.28095846  0.40979730    -0.21900
H2017       H  0.76918397  0.25306688  0.42598473     0.19900
H2018       H  0.77880378  0.25088235  0.36748660     0.18700
H2019       H  0.76934091  0.21822676  0.37199010     0.15000
H2020       H  0.77894976  0.28532565  0.42176967     0.14900
H2021       H  0.76146365  0.22198921  0.42168693     0.33000
H2022       H  0.78636416  0.28233664  0.37196118     0.35800
C2023       C  0.67238435  0.19769760  0.38329850     0.21400
C2024       C  0.65663048  0.19464556  0.37913827    -0.38500
C2025       C  0.65018866  0.20439577  0.36743312     0.20400
C2026       C  0.65871685  0.21643612  0.36055270     0.23000
C2027       C  0.67442467  0.21950151  0.36470125    -0.39000
C2028       C  0.68092273  0.20961046  0.37620019     0.21800
N2029       N  0.68187608  0.18861501  0.39221838    -0.32300
C2030       C  0.69658847  0.19455389  0.39040046    -0.09800
C2031       C  0.69638981  0.20777515  0.38070114    -0.28600
N2032       N  0.65060090  0.22288449  0.34859091    -0.45200
C2033       C  0.63690181  0.21475471  0.34765330    -0.04500
C2034       C  0.63612679  0.20323714  0.35932211    -0.21900
H2035       H  0.65020386  0.18475504  0.38390852     0.19900
H2036       H  0.68140932  0.22824830  0.35864411     0.18700
H2037       H  0.70646543  0.21417716  0.37623147     0.15000
H2038       H  0.62698168  0.19452309  0.36097119     0.14900
H2039       H  0.67884242  0.17810220  0.39776451     0.33000
H2040       H  0.65454660  0.23162277  0.34092813     0.35800
C2041       C  0.90926383  0.13819955  0.51556311     0.21400
C2042       C  0.92414684  0.14404018  0.51148337    -0.38500
C2043       C  0.93077211  0.15488721  0.52202459     0.20400
C2044       C  0.92331761  0.15951776  0.53577286     0.23000
C2045       C  0.90827272  0.15380926  0.53976385    -0.39000
C2046       C  0.90153933  0.14305551  0.52908215     0.21800
N2047       N  0.90117066  0.12671160  0.50822192    -0.32300
C2048       C  0.88812219  0.12426465  0.51707909    -0.09800
C2049       C  0.88786364  0.13434781  0.53008569    -0.28600
N2050       N  0.93327344  0.16784738  0.54497945    -0.45200
C2051       C  0.94716607  0.16826767  0.53704202    -0.04500
C2052       C  0.94585267  0.16065688  0.52256202    -0.21900
H2053       H  0.93050721  0.13979389  0.50127815     0.19900
H2054       H  0.90258946  0.15685502  0.55075978     0.18700
H2055       H  0.87923092  0.13466742  0.53945876     0.15000
H2056       H  0.95529174  0.15797689  0.51440237     0.14900
H2057       H  0.90457775  0.12055725  0.49812569     0.33000
H2058       H  0.93129111  0.17142423  0.55658434     0.35800
C2059       C  0.79697457  0.12194489  0.47245888     0.21400
C2060       C  0.78183823  0.12858506  0.47067415    -0.38500
C2061       C  0.77840628  0.13480698  0.45571453     0.20400
C2062       C  0.78926398  0.13435996  0.44356035     0.23000
C2063       C  0.80434310  0.12784864  0.44534574    -0.39000
C2064       C  0.80774506  0.12170471  0.46022210     0.21800
N2065       N  0.80318999  0.11517843  0.48540139    -0.32300
C2066       C  0.81800542  0.11070437  0.48127633    -0.09800
C2067       C  0.82123100  0.11460458  0.46568863    -0.28600
N2068       N  0.78330291  0.14095067  0.43054366    -0.45200
C2069       C  0.76852962  0.14576189  0.43430302    -0.04500
C2070       C  0.76498219  0.14213910  0.44993867    -0.21900
H2071       H  0.77337876  0.12887859  0.48020146     0.19900
H2072       H  0.81281813  0.12758272  0.43582328     0.18700
H2073       H  0.83202106  0.11247865  0.45920468     0.15000
H2074       H  0.75415099  0.14460467  0.45621900     0.14900
H2075       H  0.79773413  0.11371996  0.49632186     0.33000
H2076       H  0.78902235  0.14220736  0.41973343     0.35800
C2077       C  0.86099244  0.99059391  0.47351486     0.21400
C2078       C  0.87029737  0.00389485  0.47679377    -0.38500
C2079       C  0.86200282  0.01796260  0.47962157     0.20400
C2080       C  0.84568325  0.01868612  0.47928295     0.23000
C2081       C  0.83640589  0.00548549  0.47567251    -0.39000
C2082       C  0.84469550  0.99145049  0.47282156     0.21800
N2083       N  0.86597906  0.97583725  0.47047695    -0.32300
C2084       C  0.85276921  0.96727541  0.46764601    -0.09800
C2085       C  0.83927650  0.97663773  0.46900981    -0.28600
N2086       N  0.84059381  0.03302884  0.48369098    -0.45200
C2087       C  0.85375041  0.04156386  0.48677122    -0.04500
C2088       C  0.86734475  0.03262983  0.48417826    -0.21900
H2089       H  0.88304239  0.00327346  0.47739708     0.19900
H2090       H  0.82364564  0.00602900  0.47540819     0.18700
H2091       H  0.82715141  0.97316258  0.46704033     0.15000
H2092       H  0.87944224  0.03609518  0.48632019     0.14900
H2093       H  0.87767678  0.97195567  0.46980632     0.33000
H2094       H  0.82887876  0.03662104  0.48507699     0.35800
C2095       C  0.88852855  0.96699095  0.36230941     0.21400
C2096       C  0.88346157  0.97010784  0.37770958    -0.38500
C2097       C  0.87329505  0.95892634  0.38434495     0.20400
C2098       C  0.86845550  0.94557489  0.37633643     0.23000
C2099       C  0.87348865  0.94248271  0.36086511    -0.39000
C2100       C  0.88366386  0.95371462  0.35419191     0.21800
N2101       N  0.89946295  0.97495941  0.35405298    -0.32300
C2102       C  0.90165560  0.96667303  0.34058079    -0.09800
C2103       C  0.89186007  0.95346486  0.34017600    -0.28600
N2104       N  0.86037057  0.93589505  0.38597776    -0.45200
C2105       C  0.86030346  0.94310050  0.40024424    -0.04500
C2106       C  0.86806605  0.95754071  0.39956358    -0.21900
H2107       H  0.88776817  0.98009873  0.38435127     0.19900
H2108       H  0.87034632  0.93175240  0.35474971     0.18700
H2109       H  0.89156676  0.94433404  0.33128546     0.15000
H2110       H  0.87079295  0.96531359  0.40929783     0.14900
H2111       H  0.90563070  0.98494821  0.35771283     0.33000
H2112       H  0.85642792  0.92453298  0.38338889     0.35800
C2113       C  0.63861169  0.37343462  0.51339852     0.21400
C2114       C  0.62238687  0.37094665  0.51200881    -0.38500
C2115       C  0.61606130  0.35962019  0.52207720     0.20400
C2116       C  0.62509786  0.35123149  0.53276547     0.23000
C2117       C  0.64143845  0.35367827  0.53410763    -0.39000
C2118       C  0.64779980  0.36513214  0.52403392     0.21800
N2119       N  0.64698988  0.38485853  0.50646357    -0.32300
C2120       C  0.66158177  0.38397550  0.51285988    -0.09800
C2121       C  0.66263291  0.37170191  0.52369217    -0.28600
N2122       N  0.61580945  0.34245764  0.54217639    -0.45200
C2123       C  0.60083932  0.34559145  0.53744125    -0.04500
C2124       C  0.60061249  0.35605537  0.52488234    -0.21900
H2125       H  0.61505750  0.37795644  0.50427750     0.19900
H2126       H  0.64851097  0.34776052  0.54291006     0.18700
H2127       H  0.67256513  0.36876169  0.53115039     0.15000
H2128       H  0.59037945  0.36126034  0.51928887     0.14900
H2129       H  0.64275946  0.39337725  0.49868225     0.33000
H2130       H  0.61932216  0.33574595  0.55185655     0.35800
C2131       C  0.74178541  0.38379565  0.45894620     0.21400
C2132       C  0.74418778  0.37860565  0.44350104    -0.38500
C2133       C  0.75875961  0.37146618  0.44054191     0.20400
C2134       C  0.77015541  0.36953869  0.45206171     0.23000
C2135       C  0.76769998  0.37470302  0.46763885    -0.39000
C2136       C  0.75304118  0.38195942  0.47062083     0.21800
N2137       N  0.72904601  0.39131697  0.46448337    -0.32300
C2138       C  0.73208976  0.39446215  0.47980987    -0.09800
C2139       C  0.74692985  0.38871478  0.48417314    -0.28600
N2140       N  0.78295512  0.36220445  0.44609310    -0.45200
C2141       C  0.77951054  0.35942086  0.43073211    -0.04500
C2142       C  0.76457568  0.36510712  0.42687294    -0.21900
H2143       H  0.73535862  0.38009961  0.43440867     0.19900
H2144       H  0.77655363  0.37326902  0.47671127     0.18700
H2145       H  0.75256464  0.38960826  0.49557087     0.15000
H2146       H  0.75865695  0.36444785  0.41559615     0.14900
H2147       H  0.71893971  0.39434704  0.45811551     0.33000
H2148       H  0.79323422  0.35904892  0.45212313     0.35800
C2149       C  0.66211003  0.45429836  0.59588811     0.21400
C2150       C  0.67353443  0.44337318  0.59093177    -0.38500
C2151       C  0.67972148  0.44577152  0.57583289     0.20400
C2152       C  0.67476348  0.45809955  0.56640876     0.23000
C2153       C  0.66341265  0.46907767  0.57140145    -0.39000
C2154       C  0.65728004  0.46670197  0.58651146     0.21800
N2155       N  0.65363602  0.45387092  0.60920529    -0.32300
C2156       C  0.64332079  0.46605488  0.60833666    -0.09800
C2157       C  0.64527155  0.47441148  0.59437107    -0.28600
N2158       N  0.68049851  0.45645499  0.55181494    -0.45200
C2159       C  0.68903919  0.44295336  0.55182844    -0.04500
C2160       C  0.68914457  0.43609811  0.56670606    -0.21900
H2161       H  0.67678181  0.43329961  0.59800715     0.19900
H2162       H  0.65909056  0.47830778  0.56376240     0.18700
H2163       H  0.63845573  0.48437803  0.59027787     0.15000
H2164       H  0.69368978  0.42461811  0.56984866     0.14900
H2165       H  0.65450100  0.44549581  0.61815450     0.33000
H2166       H  0.67751386  0.46327651  0.54203161     0.35800
C2167       C  0.68535441  0.51617786  0.47552161     0.21400
C2168       C  0.67719162  0.50181421  0.47583913    -0.38500
C2169       C  0.68641534  0.48846109  0.47907231     0.20400
C2170       C  0.70251140  0.48937770  0.48175910     0.23000
C2171       C  0.71068678  0.50365461  0.48118429    -0.39000
C2172       C  0.70148409  0.51695655  0.47799821     0.21800
N2173       N  0.67950603  0.53049382  0.47207519    -0.32300
C2174       C  0.69210202  0.54032210  0.47211308    -0.09800
C2175       C  0.70594134  0.53231132  0.47589026    -0.28600
N2176       N  0.70839281  0.47528233  0.48576203    -0.45200
C2177       C  0.69596180  0.46529937  0.48566586    -0.04500
C2178       C  0.68207967  0.47301430  0.48134687    -0.21900
H2179       H  0.66459186  0.50110206  0.47386808     0.19900
H2180       H  0.72328067  0.50437488  0.48319902     0.18700
H2181       H  0.71784384  0.53691301  0.47597703     0.15000
H2182       H  0.67026290  0.46821292  0.48102304     0.14900
H2183       H  0.66793271  0.53317181  0.46874247     0.33000
H2184       H  0.71998888  0.47278094  0.48913164     0.35800
C2185       C  0.81366905  0.62412406  0.61236503     0.21400
C2186       C  0.81245252  0.62162789  0.62860299    -0.38500
C2187       C  0.82333695  0.61100558  0.63504279     0.20400
C2188       C  0.83448210  0.60319307  0.62602064     0.23000
C2189       C  0.83579538  0.60580601  0.60974379    -0.39000
C2190       C  0.82500372  0.61662132  0.60330727     0.21800
N2191       N  0.80581462  0.63490297  0.60385883    -0.32300
C2192       C  0.81237040  0.63452136  0.58934708    -0.09800
C2193       C  0.82424557  0.62312803  0.58847028    -0.28600
N2194       N  0.84402176  0.59439945  0.63519808    -0.45200
C2195       C  0.83901653  0.59690261  0.65014798    -0.04500
C2196       C  0.82617873  0.60718771  0.65048163    -0.21900
H2197       H  0.80409699  0.62803165  0.63582044     0.19900
H2198       H  0.84495949  0.60034304  0.60273805     0.18700
H2199       H  0.83204756  0.62076510  0.57866386     0.15000
H2200       H  0.82014323  0.61176313  0.66074455     0.14900
H2201       H  0.79730535  0.64280169  0.60797837     0.33000
H2202       H  0.85384262  0.58785467  0.63162901     0.35800
C2203       C  0.75599303  0.63902763  0.50695842     0.21400
C2204       C  0.74022163  0.63567622  0.50347242    -0.38500
C2205       C  0.73762332  0.62682310  0.48984438     0.20400
C2206       C  0.74975639  0.62156732  0.48028250     0.23000
C2207       C  0.76567423  0.62508024  0.48372105    -0.39000
C2208       C  0.76830826  0.63408322  0.49745691     0.21800
N2209       N  0.76137743  0.64695387  0.51950192    -0.32300
C2210       C  0.77728449  0.64734351  0.51808076    -0.09800
C2211       C  0.78212588  0.63941868  0.50444661    -0.28600
N2212       N  0.74398749  0.61244108  0.46857321    -0.45200
C2213       C  0.72812633  0.61190454  0.47093742    -0.04500
C2214       C  0.72380030  0.62087566  0.48396145    -0.21900
H2215       H  0.73064715  0.63943151  0.51103108     0.19900
H2216       H  0.77527800  0.62090295  0.47643028     0.18700
H2217       H  0.79407840  0.63767071  0.50031954     0.15000
H2218       H  0.71210765  0.62229956  0.48889088     0.14900
H2219       H  0.75458210  0.65186977  0.52851705     0.33000
H2220       H  0.75045020  0.60647328  0.45995263     0.35800
C2221       C  0.78818078  0.87087323  0.50871360     0.21400
C2222       C  0.80365682  0.87607999  0.50668344    -0.38500
C2223       C  0.80684411  0.88346360  0.49241081     0.20400
C2224       C  0.79548415  0.88573425  0.48092997     0.23000
C2225       C  0.77979386  0.88050909  0.48299887    -0.39000
C2226       C  0.77659740  0.87285676  0.49739120     0.21800
N2227       N  0.78253992  0.86332861  0.52127338    -0.32300
C2228       C  0.76719968  0.86024492  0.51818835    -0.09800
C2229       C  0.76293252  0.86601360  0.50332803    -0.28600
N2230       N  0.80178664  0.89328112  0.46845647    -0.45200
C2231       C  0.81719369  0.89572445  0.47222267    -0.04500
C2232       C  0.82071012  0.88970140  0.48702367    -0.21900
H2233       H  0.81263550  0.87440216  0.51559618     0.19900
H2234       H  0.77082654  0.88217403  0.47407788     0.18700
H2235       H  0.75148955  0.86534631  0.49770411     0.15000
H2236       H  0.83192361  0.89001632  0.49313252     0.14900
H2237       H  0.78885687  0.86038168  0.53141533     0.33000
H2238       H  0.79598184  0.89669603  0.45816284     0.35800
C2239       C  0.76744338  0.76696266  0.56239391     0.21400
C2240       C  0.77125516  0.75391933  0.57183802    -0.38500
C2241       C  0.77431875  0.73979509  0.56374763     0.20400
C2242       C  0.77375156  0.73884199  0.54749335     0.23000
C2243       C  0.76965602  0.75177979  0.53808916    -0.39000
C2244       C  0.76647899  0.76583502  0.54617269     0.21800
N2245       N  0.76418555  0.78172186  0.56717551    -0.32300
C2246       C  0.76093056  0.78999455  0.55392776    -0.09800
C2247       C  0.76216981  0.78045260  0.54059412    -0.28600
N2248       N  0.77825927  0.72450656  0.54255123    -0.45200
C2249       C  0.78161974  0.71616230  0.55570558    -0.04500
C2250       C  0.77915182  0.72524111  0.56920881    -0.21900
H2251       H  0.77201801  0.75476897  0.58452464     0.19900
H2252       H  0.76920935  0.75101244  0.52538190     0.18700
H2253       H  0.76001987  0.78372982  0.52847827     0.15000
H2254       H  0.78147224  0.72194090  0.58128622     0.14900
H2255       H  0.76374022  0.78581360  0.57877111     0.33000
H2256       H  0.77945820  0.72076383  0.53089534     0.35800
C2257       C  0.13428602  0.13109280  0.76995557     0.21400
C2258       C  0.12256418  0.13605191  0.78059938    -0.38500
C2259       C  0.11755695  0.15175128  0.77905707     0.20400
C2260       C  0.12368382  0.16156635  0.76760168     0.23000
C2261       C  0.13520684  0.15655941  0.75690068    -0.39000
C2262       C  0.14035166  0.14103601  0.75860005     0.21800
N2263       N  0.14241355  0.11749803  0.77020937    -0.32300
C2264       C  0.15376757  0.11892604  0.75904879    -0.09800
C2265       C  0.15279369  0.13340395  0.75150250    -0.28600
N2266       N  0.11915427  0.17644782  0.77008045    -0.45200
C2267       C  0.11029175  0.17633139  0.78332143    -0.04500
C2268       C  0.10868240  0.16106220  0.78912789    -0.21900
H2269       H  0.11848426  0.12859903  0.79006548     0.19900
H2270       H  0.14061393  0.16454344  0.74860084     0.18700
H2271       H  0.16070450  0.13807640  0.74268650     0.15000
H2272       H  0.10346515  0.15757319  0.80020042     0.14900
H2273       H  0.14087491  0.10817064  0.77804555     0.33000
H2274       H  0.12313868  0.18633799  0.76398341     0.35800
C2275       C  0.43113318  0.15394566  0.67111227     0.21400
C2276       C  0.42676514  0.13829402  0.66811029    -0.38500
C2277       C  0.41483860  0.13218324  0.67778870     0.20400
C2278       C  0.40775875  0.14097122  0.68957086     0.23000
C2279       C  0.41209539  0.15660352  0.69257411    -0.39000
C2280       C  0.42400774  0.16270805  0.68289853     0.21800
N2281       N  0.44058546  0.16307359  0.66225416    -0.32300
C2282       C  0.43915851  0.17779699  0.66824075    -0.09800
C2283       C  0.42916147  0.17793508  0.68128966    -0.28600
N2284       N  0.39596409  0.13286047  0.69633930    -0.45200
C2285       C  0.39552220  0.11880989  0.68878640    -0.04500
C2286       C  0.40713990  0.11793798  0.67718591    -0.21900
H2287       H  0.43176518  0.13159837  0.65847698     0.19900
H2288       H  0.40610267  0.16373599  0.70129080     0.18700
H2289       H  0.42493348  0.18812316  0.68770052     0.15000
H2290       H  0.40921409  0.10841721  0.66896231     0.14900
H2291       H  0.44630160  0.15982800  0.65185165     0.33000
H2292       H  0.38832770  0.13684480  0.70513225     0.35800
C2293       C  0.28944237  0.09276714  0.72155775     0.21400
C2294       C  0.27550025  0.10163114  0.72279928    -0.38500
C2295       C  0.26204788  0.09326268  0.72747554     0.20400
C2296       C  0.26252401  0.07735061  0.73090751     0.23000
C2297       C  0.27640953  0.06846982  0.72956298    -0.39000
C2298       C  0.28977940  0.07677531  0.72463540     0.21800
N2299       N  0.30366407  0.09777147  0.71668918    -0.32300
C2300       C  0.31300185  0.08480857  0.71645705    -0.09800
C2301       C  0.30476163  0.07150534  0.72130083    -0.28600
N2302       N  0.24823815  0.07219146  0.73529728    -0.45200
C2303       C  0.23854623  0.08485452  0.73444532    -0.04500
C2304       C  0.24670332  0.09822440  0.72961760    -0.21900
H2305       H  0.27510727  0.11406686  0.72011403     0.19900
H2306       H  0.27672510  0.05596830  0.73194524     0.18700
H2307       H  0.30904405  0.05951347  0.72183534     0.15000
H2308       H  0.24211879  0.11004024  0.72829190     0.14900
H2309       H  0.30663087  0.10912333  0.71302986     0.33000
H2310       H  0.24528440  0.06079377  0.73878643     0.35800
C2311       C  0.40481322  0.00660801  0.74785103     0.21400
C2312       C  0.39829595  0.00906225  0.73276478    -0.38500
C2313       C  0.39223464  0.02426355  0.72990762     0.20400
C2314       C  0.39271755  0.03595935  0.74125959     0.23000
C2315       C  0.39911326  0.03351014  0.75621770    -0.39000
C2316       C  0.40506258  0.01845105  0.75904840     0.21800
N2317       N  0.41175917  0.99347886  0.75353293    -0.32300
C2318       C  0.41636627  0.99716740  0.76840988    -0.09800
C2319       C  0.41228114  0.01257851  0.77222306    -0.28600
N2320       N  0.38636707  0.04933209  0.73587708    -0.45200
C2321       C  0.38168367  0.04634321  0.72094766    -0.04500
C2322       C  0.38514482  0.03078922  0.71670642    -0.21900
H2323       H  0.39805446  0.99989277  0.72391472     0.19900
H2324       H  0.39950328  0.04272842  0.76501800     0.18700
H2325       H  0.41463553  0.01879736  0.78310337     0.15000
H2326       H  0.38275691  0.02505773  0.70557619     0.14900
H2327       H  0.41344357  0.98281463  0.74763633     0.33000
H2328       H  0.38525440  0.05991444  0.74205631     0.35800
C2329       C  0.53942548  0.00609652  0.79371036     0.21400
C2330       C  0.52644171  0.00171127  0.78436395    -0.38500
C2331       C  0.51230663  0.99882020  0.79252207     0.20400
C2332       C  0.51117260  0.00036010  0.80870320     0.23000
C2333       C  0.52417430  0.00459754  0.81801995    -0.39000
C2334       C  0.53831634  0.00730736  0.80991432     0.21800
N2335       N  0.55400131  0.01005386  0.78884514    -0.32300
C2336       C  0.56221740  0.01370875  0.80207665    -0.09800
C2337       C  0.55285342  0.01201667  0.81543742    -0.28600
N2338       N  0.49656741  0.99672161  0.81368525    -0.45200
C2339       C  0.48833660  0.99261560  0.80063358    -0.04500
C2340       C  0.49775786  0.99380784  0.78718907    -0.21900
H2341       H  0.52728122  0.00061953  0.77169945     0.19900
H2342       H  0.52334092  0.00570309  0.83068092     0.18700
H2343       H  0.55601888  0.01467522  0.82749249     0.15000
H2344       H  0.49454343  0.99088086  0.77520752     0.14900
H2345       H  0.55796510  0.01071859  0.77722727     0.33000
H2346       H  0.49263227  0.99640650  0.82533432     0.35800
C2347       C  0.58090682  0.10727062  0.81560719     0.21400
C2348       C  0.58431907  0.12227511  0.82175175    -0.38500
C2349       C  0.57302310  0.12863827  0.83212862     0.20400
C2350       C  0.55939862  0.12063239  0.83614780     0.23000
C2351       C  0.55589863  0.10578082  0.82985524    -0.39000
C2352       C  0.56713146  0.09945611  0.81949180     0.21800
N2353       N  0.59079700  0.09762419  0.80769967    -0.32300
C2354       C  0.58333575  0.08353378  0.80682676    -0.09800
C2355       C  0.56844371  0.08438553  0.81376224    -0.28600
N2356       N  0.55168288  0.12808609  0.84784454    -0.45200
C2357       C  0.56044332  0.14093624  0.85138523    -0.04500
C2358       C  0.57370126  0.14181731  0.84163295    -0.21900
H2359       H  0.59542574  0.12810467  0.81946124     0.19900
H2360       H  0.54569627  0.09913618  0.83361560     0.18700
H2361       H  0.56045714  0.07472272  0.81601514     0.15000
H2362       H  0.58323148  0.15025285  0.84231774     0.14900
H2363       H  0.60252386  0.09994601  0.80471097     0.33000
H2364       H  0.54160694  0.12415358  0.85370948     0.35800
C2365       C  0.65761215  0.98152063  0.73040860     0.21400
C2366       C  0.65016860  0.99633928  0.73173612    -0.38500
C2367       C  0.64439638  0.00027930  0.74681716     0.20400
C2368       C  0.64583079  0.99010679  0.75943835     0.23000
C2369       C  0.65310454  0.97536233  0.75808873    -0.39000
C2370       C  0.65897002  0.97153757  0.74317607     0.21800
N2371       N  0.66427548  0.97494536  0.71752291    -0.32300
C2372       C  0.66985101  0.96070574  0.72225655    -0.09800
C2373       C  0.66674753  0.95825215  0.73816309    -0.28600
N2374       N  0.63943735  0.99636070  0.77245229    -0.45200
C2375       C  0.63380945  0.01068462  0.76829249    -0.04500
C2376       C  0.63669096  0.01361866  0.75234727    -0.21900
H2377       H  0.64904186  0.00423204  0.72182341     0.19900
H2378       H  0.65420292  0.96745118  0.76799697     0.18700
H2379       H  0.66972891  0.94802462  0.74513585     0.15000
H2380       H  0.63340822  0.02395811  0.74568969     0.14900
H2381       H  0.66488488  0.97975239  0.70625855     0.33000
H2382       H  0.63879633  0.99107825  0.78354915     0.35800
C2383       C  0.71565610  0.91037365  0.62378296     0.21400
C2384       C  0.71113383  0.90414782  0.60911014    -0.38500
C2385       C  0.72210617  0.89407792  0.60180465     0.20400
C2386       C  0.73649941  0.89042710  0.60860389     0.23000
C2387       C  0.74110861  0.89679922  0.62316055    -0.39000
C2388       C  0.73012919  0.90683084  0.63048532     0.21800
N2389       N  0.70638319  0.91806586  0.63415164    -0.32300
C2390       C  0.71484817  0.91911002  0.64766887    -0.09800
C2391       C  0.72983548  0.91251786  0.64568865    -0.28600
N2392       N  0.74399714  0.87917481  0.60026427    -0.45200
C2393       C  0.73433566  0.87564036  0.58803444    -0.04500
C2394       C  0.72065318  0.88483376  0.58850966    -0.21900
H2395       H  0.69952367  0.90620799  0.60420014     0.19900
H2396       H  0.75200377  0.89336528  0.62886655     0.18700
H2397       H  0.73862785  0.91050674  0.65471633     0.15000
H2398       H  0.71054909  0.88410792  0.58074092     0.14900
H2399       H  0.69444775  0.92079259  0.63270225     0.33000
H2400       H  0.75469252  0.87375260  0.60309385     0.35800
C2401       C  0.78890980  0.91702465  0.73124599     0.21400
C2402       C  0.77641956  0.90721137  0.72653685    -0.38500
C2403       C  0.76169428  0.91460975  0.72468624     0.20400
C2404       C  0.75971593  0.93060308  0.72708704     0.23000
C2405       C  0.77214720  0.94037798  0.73189187    -0.39000
C2406       C  0.78677232  0.93294758  0.73396858     0.21800
N2407       N  0.80384709  0.91275660  0.73448952    -0.32300
C2408       C  0.81118032  0.92599723  0.73955353    -0.09800
C2409       C  0.80093168  0.93886027  0.73930813    -0.28600
N2410       N  0.74490770  0.93499709  0.72362270    -0.45200
C2411       C  0.73729409  0.92175505  0.71903536    -0.04500
C2412       C  0.74731761  0.90870712  0.71972343    -0.21900
H2413       H  0.77804388  0.89473905  0.72450926     0.19900
H2414       H  0.77052943  0.95285558  0.73390492     0.18700
H2415       H  0.80332721  0.95076541  0.74316551     0.15000
H2416       H  0.74475825  0.89678278  0.71604582     0.14900
H2417       H  0.80855635  0.90139785  0.73401624     0.33000
H2418       H  0.74041500  0.94645053  0.72373244     0.35800
C2419       C  0.15589478  0.02810076  0.71818052     0.21400
C2420       C  0.14938831  0.01287295  0.71687112    -0.38500
C2421       C  0.14114750  0.00966141  0.70279044     0.20400
C2422       C  0.13956437  0.02085127  0.69108362     0.23000
C2423       C  0.14598395  0.03595051  0.69239337    -0.39000
C2424       C  0.15421489  0.03908863  0.70630483     0.21800
N2425       N  0.16420084  0.03424948  0.73028374    -0.32300
C2426       C  0.16774699  0.04921606  0.72595527    -0.09800
C2427       C  0.16176626  0.05256446  0.71105547    -0.28600
N2428       N  0.13179191  0.01498345  0.67867742    -0.45200
C2429       C  0.12835973  0.99986067  0.68225099    -0.04500
C2430       C  0.13387094  0.99606591  0.69731506    -0.21900
H2431       H  0.15074949  0.00416258  0.72604287     0.19900
H2432       H  0.14477900  0.04460642  0.68314276     0.18700
H2433       H  0.16261877  0.06352070  0.70464288     0.15000
H2434       H  0.13310403  0.98482600  0.70321662     0.14900
H2435       H  0.16712162  0.02870330  0.74085094     0.33000
H2436       H  0.12923876  0.02087728  0.66819994     0.35800
C2437       C  0.86795629  0.06132142  0.57886935     0.21400
C2438       C  0.87197837  0.06400346  0.59469951    -0.38500
C2439       C  0.88281088  0.05331636  0.60127690     0.20400
C2440       C  0.88910537  0.04090171  0.59274128     0.23000
C2441       C  0.88500390  0.03815667  0.57703850    -0.39000
C2442       C  0.87427157  0.04881887  0.57048525     0.21800
N2443       N  0.85969179  0.07089934  0.56926449    -0.32300
C2444       C  0.86102778  0.06446635  0.55470730    -0.09800
C2445       C  0.86984113  0.05062754  0.55509803    -0.28600
N2446       N  0.90051045  0.03358475  0.60091579    -0.45200
C2447       C  0.90162750  0.04144745  0.61472014    -0.04500
C2448       C  0.89063273  0.05369186  0.61550389    -0.21900
H2449       H  0.86773325  0.07417010  0.60112461     0.19900
H2450       H  0.89051847  0.02895760  0.57012755     0.18700
H2451       H  0.87372165  0.04361530  0.54517310     0.15000
H2452       H  0.88934565  0.06237960  0.62474747     0.14900
H2453       H  0.85472415  0.08178810  0.57215223     0.33000
H2454       H  0.90774121  0.02443163  0.59696306     0.35800
C2455       C  0.89159417  0.97054044  0.71403731     0.21400
C2456       C  0.89804528  0.97223307  0.69900320    -0.38500
C2457       C  0.90348469  0.98726798  0.69525987     0.20400
C2458       C  0.90280366  0.99977565  0.70569009     0.23000
C2459       C  0.89630920  0.99805980  0.72087419    -0.39000
C2460       C  0.89067435  0.98290986  0.72462221     0.21800
N2461       N  0.88538422  0.95742541  0.72013654    -0.32300
C2462       C  0.88038461  0.96126662  0.73478027    -0.09800
C2463       C  0.88346671  0.97710725  0.73806928    -0.28600
N2464       N  0.90905779  0.01281071  0.69910808    -0.45200
C2465       C  0.91361917  0.00838823  0.68441687    -0.04500
C2466       C  0.91023663  0.99260574  0.68165176    -0.21900
H2467       H  0.89869105  0.96253367  0.69075066     0.19900
H2468       H  0.89562997  0.00776924  0.72910380     0.18700
H2469       H  0.88067395  0.98351239  0.74872741     0.15000
H2470       H  0.91268950  0.98583223  0.67112901     0.14900
H2471       H  0.88450126  0.94648282  0.71458033     0.33000
H2472       H  0.91025595  0.02390370  0.70428167     0.35800
C2473       C  0.00706691  0.00336022  0.64041535     0.21400
C2474       C  0.02038399  0.00080056  0.63086434    -0.38500
C2475       C  0.03482006  0.99906352  0.63884045     0.20400
C2476       C  0.03583782  0.99959807  0.65508690     0.23000
C2477       C  0.02255861  0.00211822  0.66461923    -0.39000
C2478       C  0.00818710  0.00407010  0.65665006     0.21800
N2479       N  0.99224627  0.00664267  0.63570120    -0.32300
C2480       C  0.98395332  0.00975164  0.64901272    -0.09800
C2481       C  0.99347907  0.00807301  0.66231237    -0.28600
N2482       N  0.05070998  0.99691558  0.65986487    -0.45200
C2483       C  0.05927588  0.99462386  0.64659354    -0.04500
C2484       C  0.04981798  0.99605509  0.63321113    -0.21900
H2485       H  0.01959856  0.00040999  0.61815778     0.19900
H2486       H  0.02339615  0.00274937  0.67731445     0.18700
H2487       H  0.99033295  0.01050182  0.67441791     0.15000
H2488       H  0.05322985  0.99407195  0.62109750     0.14900
H2489       H  0.98830090  0.00778382  0.62411243     0.33000
H2490       H  0.05465337  0.99597094  0.67147675     0.35800
C2491       C  0.97379241  0.12337576  0.61128487     0.21400
C2492       C  0.96270484  0.11826606  0.62247497    -0.38500
C2493       C  0.96443970  0.10266466  0.62763521     0.20400
C2494       C  0.97626960  0.09296495  0.62192749     0.23000
C2495       C  0.98729925  0.09805180  0.61074809    -0.39000
C2496       C  0.98561889  0.11362292  0.60566960     0.21800
N2497       N  0.97407799  0.13726929  0.60378297    -0.32300
C2498       C  0.98607620  0.13630850  0.59325061    -0.09800
C2499       C  0.99364143  0.12176639  0.59415934    -0.28600
N2500       N  0.97458493  0.07831682  0.62745320    -0.45200
C2501       C  0.96159566  0.07854331  0.63674293    -0.04500
C2502       C  0.95498025  0.09359224  0.63730820    -0.21900
H2503       H  0.95313725  0.12571957  0.62646809     0.19900
H2504       H  0.99620542  0.09026497  0.60594796     0.18700
H2505       H  0.00321349  0.11747496  0.58689065     0.15000
H2506       H  0.94404568  0.09708039  0.64289859     0.14900
H2507       H  0.96617790  0.14660575  0.60528142     0.33000
H2508       H  0.98133699  0.06850021  0.62432659     0.35800
C2509       C  0.14829326  0.36448471  0.02386337     0.21400
C2510       C  0.14314867  0.35257999  0.03416432    -0.38500
C2511       C  0.12718993  0.34822836  0.03271792     0.20400
C2512       C  0.11730275  0.35525702  0.02180554     0.23000
C2513       C  0.12245848  0.36694719  0.01148769    -0.39000
C2514       C  0.13826236  0.37127398  0.01293908     0.21800
N2515       N  0.16227234  0.37197684  0.02394011    -0.32300
C2516       C  0.16096184  0.38357778  0.01304015    -0.09800
C2517       C  0.14623011  0.38338351  0.00585257    -0.28600
N2518       N  0.10237254  0.35068487  0.02391377    -0.45200
C2519       C  0.10252432  0.34071556  0.03630122    -0.04500
C2520       C  0.11785098  0.33863729  0.04203181    -0.21900
H2521       H  0.15075183  0.34769036  0.04315940     0.19900
H2522       H  0.11449055  0.37286395  0.00347577     0.18700
H2523       H  0.14160771  0.39166187  0.99734790     0.15000
H2524       H  0.12142289  0.33220366  0.05242051     0.14900
H2525       H  0.17180141  0.36986040  0.03147937     0.33000
H2526       H  0.09248236  0.35494376  0.01792683     0.35800
C2527       C  0.18630844  0.51897215  0.97414381     0.21400
C2528       C  0.17700543  0.50539700  0.97595983    -0.38500
C2529       C  0.18521763  0.49153750  0.97981968     0.20400
C2530       C  0.20142625  0.49133425  0.98182709     0.23000
C2531       C  0.21071339  0.50485115  0.97995747    -0.39000
C2532       C  0.20254052  0.51862837  0.97596178     0.21800
N2533       N  0.18148734  0.53338584  0.96969622    -0.32300
C2534       C  0.19476018  0.54218796  0.96843369    -0.09800
C2535       C  0.20812252  0.53339875  0.97231547    -0.28600
N2536       N  0.20642468  0.47688065  0.98577007    -0.45200
C2537       C  0.19338103  0.46769255  0.98625975    -0.04500
C2538       C  0.17987112  0.47640242  0.98255567    -0.21900
H2539       H  0.16433815  0.50558424  0.97432432     0.19900
H2540       H  0.22341331  0.50460496  0.98132064     0.18700
H2541       H  0.22032464  0.53711002  0.97181282     0.15000
H2542       H  0.16776503  0.47236680  0.98246427     0.14900
H2543       H  0.16997864  0.53678221  0.96680633     0.33000
H2544       H  0.21801373  0.47353410  0.98833171     0.35800
C2545       C  0.17989676  0.55859248  0.87608159     0.21400
C2546       C  0.17647542  0.56131099  0.86014177    -0.38500
C2547       C  0.16449336  0.55195009  0.85360519     0.20400
C2548       C  0.15654773  0.54068636  0.86226180     0.23000
C2549       C  0.16002754  0.53787396  0.87812609    -0.39000
C2550       C  0.17194780  0.54725961  0.88466082     0.21800
N2551       N  0.18901621  0.56745866  0.88558590    -0.32300
C2552       C  0.18656953  0.56189606  0.90031473    -0.09800
C2553       C  0.17626008  0.54912087  0.90012358    -0.28600
N2554       N  0.14468830  0.53442499  0.85383174    -0.45200
C2555       C  0.14503084  0.54180421  0.83972924    -0.04500
C2556       C  0.15728373  0.55272498  0.83908672    -0.21900
H2557       H  0.18209276  0.57063492  0.85356001     0.19900
H2558       H  0.15331286  0.52962888  0.88511862     0.18700
H2559       H  0.17128500  0.54309496  0.91016939     0.15000
H2560       H  0.16002359  0.56071192  0.82957559     0.14900
H2561       H  0.19519949  0.57761790  0.88247770     0.33000
H2562       H  0.13643548  0.52617167  0.85767701     0.35800
C2563       C  0.32045901  0.39390516  0.84675813     0.21400
C2564       C  0.33194683  0.40462590  0.84166438    -0.38500
C2565       C  0.33014341  0.41027477  0.82628216     0.20400
C2566       C  0.31776225  0.40558597  0.81673903     0.23000
C2567       C  0.30620869  0.39490638  0.82186419    -0.39000
C2568       C  0.30806059  0.38920657  0.83724026     0.21800
N2569       N  0.32063130  0.38559939  0.86015274    -0.32300
C2570       C  0.30838361  0.37541411  0.85917862    -0.09800
C2571       C  0.30011281  0.37740192  0.84510806    -0.28600
N2572       N  0.31989498  0.41082470  0.80200876    -0.45200
C2573       C  0.33380304  0.41872760  0.80205728    -0.04500
C2574       C  0.34042346  0.41888499  0.81708373    -0.21900
H2575       H  0.34206845  0.40762483  0.84883927     0.19900
H2576       H  0.29700485  0.39064031  0.81412230     0.18700
H2577       H  0.29033278  0.37045438  0.84077349     0.15000
H2578       H  0.35198341  0.42315036  0.82041267     0.14900
H2579       H  0.32914436  0.38620136  0.86904475     0.33000
H2580       H  0.31300415  0.40800190  0.79220945     0.35800
C2581       C  0.25302455  0.38768425  0.97015816     0.21400
C2582       C  0.26791681  0.38031901  0.96820026    -0.38500
C2583       C  0.27109075  0.37421527  0.95299075     0.20400
C2584       C  0.26019908  0.37553208  0.94091917     0.23000
C2585       C  0.24558383  0.38286605  0.94283939    -0.39000
C2586       C  0.24244527  0.38879547  0.95780747     0.21800
N2587       N  0.24662321  0.39394799  0.98336812    -0.32300
C2588       C  0.23191266  0.39888396  0.97914511    -0.09800
C2589       C  0.22904149  0.39589268  0.96331943    -0.28600
N2590       N  0.26543296  0.36862756  0.92777783    -0.45200
C2591       C  0.27986333  0.36269624  0.93111393    -0.04500
C2592       C  0.28394304  0.36596485  0.94681805    -0.21900
H2593       H  0.27624696  0.37920465  0.97779535     0.19900
H2594       H  0.23708913  0.38365168  0.93335051     0.18700
H2595       H  0.21837780  0.39835497  0.95673643     0.15000
H2596       H  0.29465080  0.36260730  0.95290293     0.14900
H2597       H  0.25177124  0.39457493  0.99452327     0.33000
H2598       H  0.25938131  0.36788462  0.91708583     0.35800
C2599       C  0.37100687  0.30954218  0.87216009     0.21400
C2600       C  0.38751864  0.30982912  0.87095705    -0.38500
C2601       C  0.39404811  0.30009847  0.85927613     0.20400
C2602       C  0.38486209  0.29062415  0.84966839     0.23000
C2603       C  0.36838128  0.29030703  0.85089422    -0.39000
C2604       C  0.36185790  0.30020458  0.86239172     0.21800
N2605       N  0.36184866  0.31869790  0.88135147    -0.32300
C2606       C  0.34680445  0.31525438  0.87720344    -0.09800
C2607       C  0.34635731  0.30377019  0.86546675    -0.28600
N2608       N  0.39370871  0.28370544  0.83850388    -0.45200
C2609       C  0.40858071  0.28901403  0.84086109    -0.04500
C2610       C  0.40930165  0.29910926  0.85380619    -0.21900
H2611       H  0.39469220  0.31762063  0.87805735     0.19900
H2612       H  0.36112158  0.28345669  0.84295278     0.18700
H2613       H  0.33605369  0.29908530  0.85956334     0.15000
H2614       H  0.41940834  0.30569961  0.85795056     0.14900
H2615       H  0.36558034  0.32722470  0.88938211     0.33000
H2616       H  0.38970159  0.27668173  0.82922492     0.35800
C2617       C  0.22640567  0.12160941  0.84355892     0.21400
C2618       C  0.21738560  0.10887299  0.83805064    -0.38500
C2619       C  0.21789281  0.10615839  0.82177556     0.20400
C2620       C  0.22675937  0.11547338  0.81180486     0.23000
C2621       C  0.23592595  0.12809856  0.81731801    -0.39000
C2622       C  0.23537504  0.13083357  0.83359106     0.21800
N2623       N  0.22665284  0.12747218  0.85823510    -0.32300
C2624       C  0.23574306  0.14057048  0.85766767    -0.09800
C2625       C  0.24156081  0.14298346  0.84249937    -0.28600
N2626       N  0.22396639  0.11160776  0.79675963    -0.45200
C2627       C  0.21322827  0.09979421  0.79707391    -0.04500
C2628       C  0.20927504  0.09588955  0.81249504    -0.21900
H2629       H  0.20993880  0.10204154  0.84578604     0.19900
H2630       H  0.24239933  0.13568936  0.80941826     0.18700
H2631       H  0.24859334  0.15275705  0.83837766     0.15000
H2632       H  0.20045940  0.08754438  0.81633483     0.14900
H2633       H  0.22040743  0.12320776  0.86793176     0.33000
H2634       H  0.22849417  0.11722687  0.78682145     0.35800
C2635       C  0.27009808  0.24071179  0.90179583     0.21400
C2636       C  0.27560384  0.25350302  0.91061842    -0.38500
C2637       C  0.27745008  0.26759380  0.90234412     0.20400
C2638       C  0.27401792  0.26895082  0.88647565     0.23000
C2639       C  0.26869953  0.25604632  0.87755321    -0.39000
C2640       C  0.26692073  0.24186198  0.88585114     0.21800
N2641       N  0.26667694  0.22628003  0.90716053    -0.32300
C2642       C  0.26138308  0.21808439  0.89454484    -0.09800
C2643       C  0.26145575  0.22734615  0.88099723    -0.28600
N2644       N  0.27684018  0.28370110  0.88145772    -0.45200
C2645       C  0.28225181  0.29164108  0.89423835    -0.04500
C2646       C  0.28278781  0.28197524  0.90743695    -0.21900
H2647       H  0.27815132  0.25258374  0.92306513     0.19900
H2648       H  0.26603310  0.25700028  0.86513351     0.18700
H2649       H  0.25736200  0.22411130  0.86936744     0.15000
H2650       H  0.28689893  0.28498536  0.91912221     0.14900
H2651       H  0.26751772  0.22236328  0.91876998     0.33000
H2652       H  0.27568334  0.28794722  0.86998828     0.35800
C2653       C  0.17498792  0.20506902  0.88248826     0.21400
C2654       C  0.16903090  0.21710791  0.87281881    -0.38500
C2655       C  0.15585253  0.21318659  0.86359724     0.20400
C2656       C  0.14892169  0.19847808  0.86423825     0.23000
C2657       C  0.15482749  0.18645695  0.87393944    -0.39000
C2658       C  0.16819400  0.19027569  0.88293827     0.21800
N2659       N  0.18896351  0.20498814  0.88997284    -0.32300
C2660       C  0.19138172  0.18996604  0.89481148    -0.09800
C2661       C  0.17845871  0.18053828  0.89100092    -0.28600
N2662       N  0.13720417  0.19735500  0.85362411    -0.45200
C2663       C  0.13674904  0.21136198  0.84600636    -0.04500
C2664       C  0.14821629  0.22156778  0.85190828    -0.21900
H2665       H  0.17486175  0.22837665  0.87178705     0.19900
H2666       H  0.14998110  0.17468554  0.87372530     0.18700
H2667       H  0.17767326  0.16787212  0.89200776     0.15000
H2668       H  0.15082162  0.23337697  0.84796449     0.14900
H2669       H  0.19719817  0.21411223  0.89004540     0.33000
H2670       H  0.13024933  0.18746319  0.85134501     0.35800
C2671       C  0.40904257  0.13325291  0.01306302     0.21400
C2672       C  0.42476523  0.13758102  0.01037175    -0.38500
C2673       C  0.43103152  0.14886138  0.02069761     0.20400
C2674       C  0.42236273  0.15547086  0.03283467     0.23000
C2675       C  0.40653364  0.15119399  0.03547448    -0.39000
C2676       C  0.40024069  0.13984814  0.02511491     0.21800
N2677       N  0.40096888  0.12166793  0.00585070    -0.32300
C2678       C  0.38690333  0.12078255  0.01336558    -0.09800
C2679       C  0.38594382  0.13206012  0.02533661    -0.28600
N2680       N  0.43169225  0.16445913  0.04210447    -0.45200
C2681       C  0.44641293  0.16331471  0.03588934    -0.04500
C2682       C  0.44634138  0.15384936  0.02245877    -0.21900
H2683       H  0.43187843  0.13196116  0.00139513     0.19900
H2684       H  0.39985347  0.15577006  0.04532612     0.18700
H2685       H  0.37642696  0.13370760  0.03366720     0.15000
H2686       H  0.45645644  0.14999569  0.01568806     0.14900
H2687       H  0.40505142  0.11434570  0.99683632     0.33000
H2688       H  0.42854629  0.16983849  0.05271115     0.35800
C2689       C  0.30721115  0.12400709  0.96046161     0.21400
C2690       C  0.30558333  0.13212084  0.94624033    -0.38500
C2691       C  0.29051431  0.13805515  0.94305452     0.20400
C2692       C  0.27796841  0.13627613  0.95331311     0.23000
C2693       C  0.27963970  0.12817610  0.96767954    -0.39000
C2694       C  0.29477550  0.12204248  0.97082176     0.21800
N2695       N  0.32022653  0.11678242  0.96575970    -0.32300
C2696       C  0.31621119  0.11007636  0.97962168    -0.09800
C2697       C  0.30040265  0.11311091  0.98326139    -0.28600
N2698       N  0.26474499  0.14266972  0.94716797    -0.45200
C2699       C  0.26898809  0.14836275  0.93286472    -0.04500
C2700       C  0.28496012  0.14572754  0.92996589    -0.21900
H2701       H  0.31528629  0.13341610  0.93807051     0.19900
H2702       H  0.26983571  0.12650839  0.97565107     0.18700
H2703       H  0.29389672  0.10917125  0.99346618     0.15000
H2704       H  0.29158363  0.14883018  0.91954107     0.14900
H2705       H  0.33119865  0.11632898  0.96017734     0.33000
H2706       H  0.25350476  0.14285147  0.95221222     0.35800
C2707       C  0.37220556  0.04613538  0.06604783     0.21400
C2708       C  0.38328200  0.03510629  0.07152196    -0.38500
C2709       C  0.38920759  0.03779141  0.08669704     0.20400
C2710       C  0.38440199  0.05050481  0.09570753     0.23000
C2711       C  0.37334453  0.06154863  0.09022056    -0.39000
C2712       C  0.36738512  0.05885626  0.07504801     0.21800
N2713       N  0.36662347  0.04737833  0.05133991    -0.32300
C2714       C  0.35835364  0.06104008  0.05082191    -0.09800
C2715       C  0.35826196  0.06840642  0.06550299    -0.28600
N2716       N  0.39262560  0.05114289  0.10919610    -0.45200
C2717       C  0.40285485  0.03886520  0.10876042    -0.04500
C2718       C  0.40102937  0.03017489  0.09493031    -0.21900
H2719       H  0.38755125  0.02558142  0.06418988     0.19900
H2720       H  0.37018378  0.07188423  0.09698710     0.18700
H2721       H  0.35387181  0.08005311  0.06827044     0.15000
H2722       H  0.40787807  0.02010649  0.09111830     0.14900
H2723       H  0.36953002  0.04013315  0.04181999     0.33000
H2724       H  0.39181764  0.05983881  0.11787756     0.35800
C2725       C  0.35854066  0.98821419  0.96959310     0.21400
C2726       C  0.36796931  0.00122288  0.97341451    -0.38500
C2727       C  0.35996509  0.01556909  0.97518206     0.20400
C2728       C  0.34376719  0.01682673  0.97343233     0.23000
C2729       C  0.33434730  0.00385346  0.96938454    -0.39000
C2730       C  0.34238565  0.98952179  0.96750223     0.21800
N2731       N  0.36340379  0.97341772  0.96682803    -0.32300
C2732       C  0.35031291  0.96528589  0.96267419    -0.09800
C2733       C  0.33693694  0.97490014  0.96305999    -0.28600
N2734       N  0.33888476  0.03146716  0.97695075    -0.45200
C2735       C  0.35207179  0.03959541  0.98089568    -0.04500
C2736       C  0.36547673  0.03012940  0.97974262    -0.21900
H2737       H  0.38060431  0.00021966  0.97501265     0.19900
H2738       H  0.32169125  0.00482343  0.96792767     0.18700
H2739       H  0.32498767  0.97179116  0.95980322     0.15000
H2740       H  0.37745772  0.03317170  0.98293748     0.14900
H2741       H  0.37503818  0.96930381  0.96693678     0.33000
H2742       H  0.32723334  0.03549067  0.97734179     0.35800
C2743       C  0.36809574  0.94418058  0.87041096     0.21400
C2744       C  0.37433174  0.93983705  0.85568025    -0.38500
C2745       C  0.38603068  0.94981281  0.84952588     0.20400
C2746       C  0.39110404  0.96314530  0.85740341     0.23000
C2747       C  0.38480837  0.96756015  0.87201902    -0.39000
C2748       C  0.37319495  0.95757163  0.87819790     0.21800
N2749       N  0.35906153  0.93529083  0.87995982    -0.32300
C2750       C  0.35885276  0.94283921  0.89404446    -0.09800
C2751       C  0.36713985  0.95699151  0.89318737    -0.28600
N2752       N  0.40316034  0.96998446  0.84972351    -0.45200
C2753       C  0.40581955  0.96097025  0.83682058    -0.04500
C2754       C  0.39532002  0.94831065  0.83626111    -0.21900
H2755       H  0.37099246  0.92899876  0.84986848     0.19900
H2756       H  0.38932090  0.97752313  0.87856565     0.18700
H2757       H  0.37015348  0.96472779  0.90286699     0.15000
H2758       H  0.39488653  0.93898765  0.82757758     0.14900
H2759       H  0.35506583  0.92388674  0.87767093     0.33000
H2760       H  0.40942615  0.97997063  0.85322713     0.35800
C2761       C  0.27071239  0.63709916  0.99596221     0.21400
C2762       C  0.26696392  0.63333705  0.98019126    -0.38500
C2763       C  0.25340037  0.62393679  0.97799376     0.20400
C2764       C  0.24442050  0.61883101  0.99058534     0.23000
C2765       C  0.24816735  0.62248956  0.00615729    -0.39000
C2766       C  0.26154464  0.63177566  0.00831321     0.21800
N2767       N  0.28249963  0.64632714  0.00143485    -0.32300
C2768       C  0.28053045  0.64682499  0.01731803    -0.09800
C2769       C  0.26766008  0.63783381  0.02192848    -0.28600
N2770       N  0.23190523  0.61060665  0.98568044    -0.45200
C2771       C  0.23272664  0.61026501  0.96979845    -0.04500
C2772       C  0.24603223  0.61841226  0.96445901    -0.21900
H2773       H  0.27389769  0.63759152  0.97040136     0.19900
H2774       H  0.24097016  0.61861620  0.01592243     0.18700
H2775       H  0.26313345  0.63623595  0.03372415     0.15000
H2776       H  0.24960043  0.62031993  0.95239174     0.14900
H2777       H  0.29101694  0.65221587  0.99481080     0.33000
H2778       H  0.22319428  0.60560921  0.99277356     0.35800
C2779       C  0.21570938  0.90897552  0.12435049     0.21400
C2780       C  0.21202545  0.90393649  0.10902068    -0.38500
C2781       C  0.22278598  0.89336631  0.10213189     0.20400
C2782       C  0.23618534  0.88821259  0.10992510     0.23000
C2783       C  0.23994106  0.89333697  0.12513217    -0.39000
C2784       C  0.22921161  0.90384594  0.13199917     0.21800
N2785       N  0.20624544  0.91690603  0.13435508    -0.32300
C2786       C  0.21369267  0.91647988  0.14847060    -0.09800
C2787       C  0.22814888  0.90872279  0.14734431    -0.28600
N2788       N  0.24362245  0.87697625  0.10160492    -0.45200
C2789       C  0.23492142  0.87491371  0.08839669    -0.04500
C2790       C  0.22190030  0.88501932  0.08822314    -0.21900
H2791       H  0.20112596  0.90725226  0.10325271     0.19900
H2792       H  0.24996868  0.88870897  0.13153759     0.18700
H2793       H  0.23595702  0.90548861  0.15690377     0.15000
H2794       H  0.21257999  0.88554604  0.07952165     0.14900
H2795       H  0.19473406  0.92076072  0.13215966     0.33000
H2796       H  0.25361618  0.87062932  0.10501444     0.35800
C2797       C  0.28122265  0.86978564  0.99654337     0.21400
C2798       C  0.28297240  0.87546669  0.98107147    -0.38500
C2799       C  0.29733378  0.88309581  0.97779345     0.20400
C2800       C  0.30892112  0.88492449  0.98913879     0.23000
C2801       C  0.30723928  0.87919118  0.00447657    -0.39000
C2802       C  0.29300163  0.87154518  0.00769881     0.21800
N2803       N  0.26861123  0.86247940  0.00284548    -0.32300
C2804       C  0.27247323  0.85961576  0.01808894    -0.09800
C2805       C  0.28763605  0.86500997  0.02147003    -0.28600
N2806       N  0.32137071  0.89262979  0.98330475    -0.45200
C2807       C  0.31787752  0.89573082  0.96807012    -0.04500
C2808       C  0.30294559  0.88997558  0.96412288    -0.21900
H2809       H  0.27381685  0.87412934  0.97228666     0.19900
H2810       H  0.31634231  0.88066528  0.01330056     0.18700
H2811       H  0.29379087  0.86450430  0.03262627     0.15000
H2812       H  0.29704905  0.89069634  0.95284656     0.14900
H2813       H  0.25798874  0.85979631  0.99720885     0.33000
H2814       H  0.33170542  0.89555123  0.98934751     0.35800
C2815       C  0.27448618  0.73978520  0.06459796     0.21400
C2816       C  0.27426560  0.75396108  0.07318936    -0.38500
C2817       C  0.26938197  0.76736894  0.06481619     0.20400
C2818       C  0.26495067  0.76659973  0.04915400     0.23000
C2819       C  0.26519022  0.75250419  0.04058993    -0.39000
C2820       C  0.27021853  0.73919501  0.04887785     0.21800
N2821       N  0.27997642  0.72570581  0.06936519    -0.32300
C2822       C  0.27951708  0.71626420  0.05647740    -0.09800
C2823       C  0.27335403  0.72422969  0.04354190    -0.28600
N2824       N  0.26066628  0.78082055  0.04385216    -0.45200
C2825       C  0.26233708  0.79082352  0.05616682    -0.04500
C2826       C  0.26782536  0.78290051  0.06948673    -0.21900
H2827       H  0.27794404  0.75456328  0.08537456     0.19900
H2828       H  0.26206722  0.75201543  0.02824514     0.18700
H2829       H  0.27237802  0.71996865  0.03156884     0.15000
H2830       H  0.26989842  0.78773449  0.08109533     0.14900
H2831       H  0.28492389  0.72305568  0.08031770     0.33000
H2832       H  0.25649750  0.78349707  0.03259607     0.35800
C2833       C  0.56049359  0.88866729  0.10803539     0.21400
C2834       C  0.55714421  0.90379816  0.11376074    -0.38500
C2835       C  0.56807726  0.91004681  0.12450917     0.20400
C2836       C  0.58139992  0.90190981  0.12929781     0.23000
C2837       C  0.58472275  0.88668779  0.12360890    -0.39000
C2838       C  0.57374736  0.88041854  0.11283670     0.21800
N2839       N  0.55262837  0.88072839  0.09675503    -0.32300
C2840       C  0.56092791  0.86729618  0.09433225    -0.09800
C2841       C  0.57410084  0.86664440  0.10422485    -0.28600
N2842       N  0.59080945  0.91122902  0.13814939    -0.45200
C2843       C  0.58347575  0.92544785  0.13878933    -0.04500
C2844       C  0.56921741  0.92501807  0.13056060    -0.21900
H2845       H  0.54713137  0.91053078  0.10959019     0.19900
H2846       H  0.59540487  0.88045601  0.12679239     0.18700
H2847       H  0.58312799  0.85762432  0.10453683     0.15000
H2848       H  0.56141172  0.93481129  0.12812511     0.14900
H2849       H  0.54255859  0.88446252  0.09070687     0.33000
H2850       H  0.60211164  0.90852546  0.14225868     0.35800
C2851       C  0.48799286  0.88690843  0.83933640     0.21400
C2852       C  0.49157523  0.90227841  0.83461303    -0.38500
C2853       C  0.48175951  0.90869713  0.82298022     0.20400
C2854       C  0.46927111  0.90047173  0.81643385     0.23000
C2855       C  0.46577865  0.88498088  0.82107317    -0.39000
C2856       C  0.47562250  0.87853993  0.83276629     0.21800
N2857       N  0.49453672  0.87890243  0.85132320    -0.32300
C2858       C  0.48632296  0.86529481  0.85246075    -0.09800
C2859       C  0.47450048  0.86457698  0.84098818    -0.28600
N2860       N  0.46024837  0.91007723  0.80754814    -0.45200
C2861       C  0.46687840  0.92454090  0.80878852    -0.04500
C2862       C  0.48049118  0.92400886  0.81801079    -0.21900
H2863       H  0.50072846  0.90911091  0.84029553     0.19900
H2864       H  0.45558547  0.87874903  0.81659935     0.18700
H2865       H  0.46571543  0.85547376  0.83945546     0.15000
H2866       H  0.48742929  0.93389601  0.82209189     0.14900
H2867       H  0.50361212  0.88275637  0.85871125     0.33000
H2868       H  0.44933067  0.90737030  0.80251001     0.35800
C2869       C  0.52182349  0.84080707  0.95933850     0.21400
C2870       C  0.52446463  0.85005632  0.97283770    -0.38500
C2871       C  0.52683989  0.84173058  0.98693456     0.20400
C2872       C  0.52675632  0.82545564  0.98746722     0.23000
C2873       C  0.52413756  0.81623572  0.97402250    -0.39000
C2874       C  0.52163253  0.82453811  0.96000826     0.21800
N2875       N  0.51822583  0.84579613  0.94472068    -0.32300
C2876       C  0.51554886  0.83257795  0.93613610    -0.09800
C2877       C  0.51769401  0.81912936  0.94526072    -0.28600
N2878       N  0.52974055  0.82033149  0.00210971    -0.45200
C2879       C  0.53170581  0.83340402  0.01105033    -0.04500
C2880       C  0.52989405  0.84700484  0.00202863    -0.21900
H2881       H  0.52447382  0.86278143  0.97243595     0.19900
H2882       H  0.52386828  0.80351360  0.97447645     0.18700
H2883       H  0.51575833  0.80702861  0.94177948     0.15000
H2884       H  0.53139211  0.85906867  0.00583349     0.14900
H2885       H  0.51677237  0.85744006  0.94106186     0.33000
H2886       H  0.53083533  0.80863676  0.00571564     0.35800
C2887       C  0.41113738  0.87206484  0.93693760     0.21400
C2888       C  0.42725940  0.86903080  0.93890068    -0.38500
C2889       C  0.43343047  0.85676481  0.92974489     0.20400
C2890       C  0.42431671  0.84803262  0.91939588     0.23000
C2891       C  0.40813170  0.85106917  0.91744121    -0.39000
C2892       C  0.40193835  0.86343395  0.92657967     0.21800
N2893       N  0.40293963  0.88421751  0.94296341    -0.32300
C2894       C  0.38846746  0.88349441  0.93623188    -0.09800
C2895       C  0.38732176  0.87056340  0.92612159    -0.28600
N2896       N  0.43346424  0.83842368  0.91062823    -0.45200
C2897       C  0.44846560  0.84137201  0.91531005    -0.04500
C2898       C  0.44883746  0.85252682  0.92734412    -0.21900
H2899       H  0.43465948  0.87628633  0.94633725     0.19900
H2900       H  0.40108308  0.84487217  0.90880632     0.18700
H2901       H  0.37747374  0.86744623  0.91862692     0.15000
H2902       H  0.45915514  0.85793021  0.93257346     0.14900
H2903       H  0.40723141  0.89301428  0.95042135     0.33000
H2904       H  0.42989325  0.83146879  0.90112680     0.35800
C2905       C  0.36591871  0.71112494  0.07427066     0.21400
C2906       C  0.37099960  0.72151047  0.08605649    -0.38500
C2907       C  0.38598675  0.71851549  0.09227882     0.20400
C2908       C  0.39527987  0.70615016  0.08707441     0.23000
C2909       C  0.39018847  0.69571971  0.07527051    -0.39000
C2910       C  0.37510827  0.69866880  0.06907464     0.21800
N2911       N  0.35129293  0.71010179  0.06839614    -0.32300
C2912       C  0.35094206  0.69676477  0.05964825    -0.09800
C2913       C  0.36570447  0.68946153  0.05946091    -0.28600
N2914       N  0.40850692  0.70511856  0.09572258    -0.45200
C2915       C  0.40753314  0.71681003  0.10656171    -0.04500
C2916       C  0.39368885  0.72547616  0.10475317    -0.21900
H2917       H  0.36345736  0.73072256  0.09065733     0.19900
H2918       H  0.39709763  0.68557120  0.07179151     0.18700
H2919       H  0.36856091  0.67796798  0.05474071     0.15000
H2920       H  0.38953433  0.73513031  0.11197910     0.14900
H2921       H  0.34167156  0.71713622  0.07153375     0.33000
H2922       H  0.41737290  0.69660059  0.09471025     0.35800
C2923       C  0.49809916  0.75924075  0.10853702     0.21400
C2924       C  0.51255077  0.76053088  0.10042253    -0.38500
C2925       C  0.51595065  0.77550113  0.09417282     0.20400
C2926       C  0.50564728  0.78804438  0.09590044     0.23000
C2927       C  0.49134950  0.78677545  0.10398620    -0.39000
C2928       C  0.48800232  0.77195496  0.11018453     0.21800
N2929       N  0.49179513  0.74632496  0.11523692    -0.32300
C2930       C  0.47759448  0.75098381  0.12101388    -0.09800
C2931       C  0.47490465  0.76687949  0.11814137    -0.28600
N2932       N  0.51124060  0.80091482  0.08880335    -0.45200
C2933       C  0.52530126  0.79677797  0.08248501    -0.04500
C2934       C  0.52873783  0.78096472  0.08558387    -0.21900
H2935       H  0.52046561  0.75062656  0.09898123     0.19900
H2936       H  0.48331130  0.79661381  0.10521656     0.18700
H2937       H  0.46457426  0.77374240  0.12120520     0.15000
H2938       H  0.53907023  0.77438205  0.08198604     0.14900
H2939       H  0.49664004  0.73502165  0.11553636     0.33000
H2940       H  0.50579021  0.81193972  0.08832839     0.35800
C2941       C  0.43403698  0.75423149  0.24067959     0.21400
C2942       C  0.42468763  0.75242995  0.22713586    -0.38500
C2943       C  0.43296923  0.75013129  0.21302041     0.20400
C2944       C  0.44929269  0.74954152  0.21250426     0.23000
C2945       C  0.45862404  0.75149115  0.22597928    -0.39000
C2946       C  0.45036110  0.75392948  0.24003665     0.21800
N2947       N  0.42909772  0.75697071  0.25546941    -0.32300
C2948       C  0.44238745  0.75865346  0.26421482    -0.09800
C2949       C  0.45586523  0.75681893  0.25499488    -0.28600
N2950       N  0.45431419  0.74626025  0.19790860    -0.45200
C2951       C  0.44111712  0.74475800  0.18903885    -0.04500
C2952       C  0.42755162  0.74724415  0.19798384    -0.21900
H2953       H  0.41192484  0.75271628  0.22756789     0.19900
H2954       H  0.47138549  0.75108890  0.22555391     0.18700
H2955       H  0.46804412  0.75803016  0.25864506     0.15000
H2956       H  0.41540314  0.74606375  0.19422466     0.14900
H2957       H  0.41743685  0.75840335  0.25923252     0.33000
H2958       H  0.46598011  0.74444228  0.19435124     0.35800
C2959       C  0.41719361  0.83921630  0.27464471     0.21400
C2960       C  0.40622290  0.84508975  0.26380001    -0.38500
C2961       C  0.40298608  0.86119069  0.26494443     0.20400
C2962       C  0.41006711  0.87073195  0.27611970     0.23000
C2963       C  0.42120342  0.86485826  0.28690141    -0.39000
C2964       C  0.42455768  0.84871530  0.28567587     0.21800
N2965       N  0.42097364  0.82409702  0.27694226    -0.32300
C2966       C  0.43088992  0.82387982  0.28944231    -0.09800
C2967       C  0.43360259  0.83902539  0.29515323    -0.28600
N2968       N  0.40372066  0.88523663  0.27579973    -0.45200
C2969       C  0.39250579  0.88483752  0.26440097    -0.04500
C2970       C  0.39184454  0.87010363  0.25724256    -0.21900
H2971       H  0.40012050  0.83752905  0.25553924     0.19900
H2972       H  0.42636194  0.87216776  0.29598495     0.18700
H2973       H  0.44019611  0.84233006  0.30555517     0.15000
H2974       H  0.38360829  0.86615976  0.24833223     0.14900
H2975       H  0.41645319  0.81440184  0.27086357     0.33000
H2976       H  0.40627457  0.89456695  0.28340551     0.35800
C2977       C  0.65040193  0.80198573  0.59061517     0.21400
C2978       C  0.65583929  0.81267033  0.57926926    -0.38500
C2979       C  0.67188926  0.81146571  0.57541261     0.20400
C2980       C  0.68171724  0.80053722  0.58249629     0.23000
C2981       C  0.67625691  0.78975026  0.59367251    -0.39000
C2982       C  0.66022935  0.79087848  0.59742260     0.21800
N2983       N  0.63614606  0.80179872  0.59747800    -0.32300
C2984       C  0.63698516  0.79057410  0.60875553    -0.09800
C2985       C  0.65172860  0.78333427  0.60893370    -0.28600
N2986       N  0.69672102  0.80283798  0.57816379    -0.45200
C2987       C  0.69651471  0.81522565  0.56816055    -0.04500
C2988       C  0.68121158  0.82087146  0.56598839    -0.21900
H2989       H  0.64829838  0.82169297  0.57433416     0.19900
H2990       H  0.68407932  0.78156963  0.59955363     0.18700
H2991       H  0.65598962  0.77455629  0.61711847     0.15000
H2992       H  0.67758769  0.83114070  0.55939459     0.14900
H2993       H  0.62673392  0.80944188  0.59524370     0.33000
H2994       H  0.70662242  0.79679113  0.58232541     0.35800
C2995       C  0.62840234  0.84373928  0.67963551     0.21400
C2996       C  0.64063356  0.84897626  0.68943234    -0.38500
C2997       C  0.64473150  0.86483854  0.68792466     0.20400
C2998       C  0.63729197  0.87477284  0.67737184     0.23000
C2999       C  0.62501139  0.86949512  0.66749826    -0.39000
C3000       C  0.62082365  0.85356121  0.66907144     0.21800
N3001       N  0.62338901  0.82889820  0.67796738    -0.32300
C3002       C  0.61260655  0.82907320  0.66617356    -0.09800
C3003       C  0.61050881  0.84431181  0.66040902    -0.28600
N3004       N  0.64427405  0.88899985  0.67741009    -0.45200
C3005       C  0.65627346  0.88800785  0.68799025    -0.04500
C3006       C  0.65680537  0.87316251  0.69486960    -0.21900
H3007       H  0.64688924  0.84111421  0.69727610     0.19900
H3008       H  0.61951412  0.87707649  0.65886223     0.18700
H3009       H  0.60340439  0.84789895  0.65045232     0.15000
H3010       H  0.66539772  0.86879357  0.70322431     0.14900
H3011       H  0.62781841  0.81903937  0.68384309     0.33000
H3012       H  0.64150713  0.89854549  0.67018943     0.35800
C3013       C  0.55605898  0.76442003  0.84535529     0.21400
C3014       C  0.55484795  0.77847037  0.85380542    -0.38500
C3015       C  0.53982790  0.78219153  0.85940346     0.20400
C3016       C  0.52680781  0.77271003  0.85688689     0.23000
C3017       C  0.52804080  0.75846026  0.84836970    -0.39000
C3018       C  0.54325370  0.75468120  0.84268072     0.21800
N3019       N  0.56913479  0.75860678  0.83871089    -0.32300
C3020       C  0.56490324  0.74495112  0.83169546    -0.09800
C3021       C  0.54878378  0.74202546  0.83386542    -0.28600
N3022       N  0.51375063  0.77945811  0.86311011    -0.45200
C3023       C  0.51871549  0.79330658  0.86945109    -0.04500
C3024       C  0.53487028  0.79526926  0.86740770    -0.21900
H3025       H  0.56489223  0.78609278  0.85571991     0.19900
H3026       H  0.51793645  0.75099618  0.84619232     0.18700
H3027       H  0.54206520  0.73209020  0.82956765     0.15000
H3028       H  0.54200574  0.80521859  0.87095305     0.14900
H3029       H  0.58035605  0.76367709  0.83896319     0.33000
H3030       H  0.50221094  0.77516152  0.86269567     0.35800
C3031       C  0.61105812  0.75009935  0.74010624     0.21400
C3032       C  0.62000113  0.75239305  0.72637004    -0.38500
C3033       C  0.61133543  0.75612064  0.71276483     0.20400
C3034       C  0.59506532  0.75766373  0.71294339     0.23000
C3035       C  0.58616347  0.75539516  0.72660353    -0.39000
C3036       C  0.59476948  0.75146529  0.74009208     0.21800
N3037       N  0.61624650  0.74526526  0.75427974    -0.32300
C3038       C  0.60310324  0.74329844  0.76316478    -0.09800
C3039       C  0.58954067  0.74718718  0.75474985    -0.28600
N3040       N  0.58959792  0.76160594  0.69868297    -0.45200
C3041       C  0.60243214  0.76253747  0.68927593    -0.04500
C3042       C  0.61623880  0.75911656  0.69757807    -0.21900
H3043       H  0.63270877  0.75108915  0.72622067     0.19900
H3044       H  0.57342054  0.75631642  0.72665128     0.18700
H3045       H  0.57740736  0.74612913  0.75857113     0.15000
H3046       H  0.62824717  0.75948855  0.69326674     0.14900
H3047       H  0.62787200  0.74249665  0.75738735     0.33000
H3048       H  0.57787805  0.76394637  0.69563052     0.35800
C3049       C  0.62242268  0.65077315  0.78470400     0.21400
C3050       C  0.62965078  0.63650478  0.78873038    -0.38500
C3051       C  0.64026154  0.63042903  0.77762531     0.20400
C3052       C  0.64359447  0.63798730  0.76359664     0.23000
C3053       C  0.63639622  0.65228347  0.75957300    -0.39000
C3054       C  0.62567573  0.65830484  0.77064238     0.21800
N3055       N  0.61318359  0.65977624  0.79394227    -0.32300
C3056       C  0.61070364  0.67320631  0.78574544    -0.09800
C3057       C  0.61813598  0.67259840  0.77110575    -0.28600
N3058       N  0.65486748  0.63022784  0.75555455    -0.45200
C3059       C  0.65867405  0.61768874  0.76462191    -0.04500
C3060       C  0.64977019  0.61738602  0.77838496    -0.21900
H3061       H  0.62758817  0.63081934  0.79992260     0.19900
H3062       H  0.63933848  0.65854244  0.74889417     0.18700
H3063       H  0.61919915  0.68201293  0.76261415     0.15000
H3064       H  0.65053365  0.60899422  0.78791871     0.14900
H3065       H  0.61004799  0.65755651  0.80559855     0.33000
H3066       H  0.65990970  0.63345169  0.74481844     0.35800
C3067       C  0.50675731  0.71559056  0.35881675     0.21400
C3068       C  0.49160641  0.71755611  0.35267688    -0.38500
C3069       C  0.48823246  0.73246333  0.34671999     0.20400
C3070       C  0.49907004  0.74462936  0.34667166     0.23000
C3071       C  0.51439369  0.74263237  0.35282296    -0.39000
C3072       C  0.51777782  0.72760408  0.35897082     0.21800
N3073       N  0.51253880  0.70257581  0.36554518    -0.32300
C3074       C  0.52737136  0.70619734  0.37017861    -0.09800
C3075       C  0.53115282  0.72170358  0.36625331    -0.28600
N3076       N  0.49272416  0.75760559  0.34002854    -0.45200
C3077       C  0.47782989  0.75339915  0.33586180    -0.04500
C3078       C  0.47466404  0.73790608  0.33996315    -0.21900
H3079       H  0.48300027  0.70815882  0.35263549     0.19900
H3080       H  0.52296726  0.75205273  0.35292419     0.18700
H3081       H  0.54207110  0.72785640  0.36861418     0.15000
H3082       H  0.46389392  0.73136485  0.33796380     0.14900
H3083       H  0.50662322  0.69192114  0.36712670     0.33000
H3084       H  0.49821066  0.76844734  0.33820672     0.35800
C3085       C  0.62463839  0.65681145  0.41772337     0.21400
C3086       C  0.63890548  0.64965511  0.41320482    -0.38500
C3087       C  0.64497571  0.63841232  0.42370656     0.20400
C3088       C  0.63736256  0.63451608  0.43756650     0.23000
C3089       C  0.62320908  0.64166550  0.44209570    -0.39000
C3090       C  0.61722396  0.65295295  0.43170855     0.21800
N3091       N  0.61512640  0.66580548  0.40873850    -0.32300
C3092       C  0.60147501  0.66725624  0.41694557    -0.09800
C3093       C  0.60259690  0.65981450  0.43149379    -0.28600
N3094       N  0.64506086  0.62299077  0.44516434    -0.45200
C3095       C  0.65777945  0.61960796  0.43616393    -0.04500
C3096       C  0.65813110  0.62892367  0.42265327    -0.21900
H3097       H  0.64449527  0.65213798  0.40203782     0.19900
H3098       H  0.61691807  0.63816268  0.45259603     0.18700
H3099       H  0.59312779  0.65771923  0.43977160     0.15000
H3100       H  0.66675198  0.62865087  0.41326507     0.14900
H3101       H  0.61698656  0.66887945  0.39698980     0.33000
H3102       H  0.64183703  0.61771987  0.45577218     0.35800
C3103       C  0.47102833  0.62686068  0.61366766     0.21400
C3104       C  0.45938182  0.62066272  0.62358757    -0.38500
C3105       C  0.46264493  0.60579377  0.62989435     0.20400
C3106       C  0.47644148  0.59773866  0.62646404     0.23000
C3107       C  0.48803956  0.60388884  0.61648408    -0.39000
C3108       C  0.48480762  0.61876374  0.61024779     0.21800
N3109       N  0.47008978  0.64006694  0.60512616    -0.32300
C3110       C  0.48323133  0.64023933  0.59606810    -0.09800
C3111       C  0.49282809  0.62727199  0.59906195    -0.28600
N3112       N  0.47595574  0.58316020  0.63236505    -0.45200
C3113       C  0.46170944  0.58180031  0.63945747    -0.04500
C3114       C  0.45312437  0.59575938  0.63837167    -0.21900
H3115       H  0.44829625  0.62666215  0.62566170     0.19900
H3116       H  0.49846554  0.59725983  0.61324159     0.18700
H3117       H  0.50367537  0.62402783  0.59316167     0.15000
H3118       H  0.44098615  0.59773266  0.64181826     0.14900
H3119       H  0.46065770  0.64801014  0.60481958     0.33000
H3120       H  0.48425044  0.57424487  0.63049614     0.35800
C3121       C  0.53694129  0.71866267  0.59634823     0.21400
C3122       C  0.55198193  0.72035206  0.60294194    -0.38500
C3123       C  0.55561545  0.73534656  0.60866126     0.20400
C3124       C  0.54503202  0.74775462  0.60808914     0.23000
C3125       C  0.52990017  0.74605553  0.60139208    -0.39000
C3126       C  0.52629239  0.73099784  0.59544760     0.21800
N3127       N  0.53101084  0.70566835  0.58970060    -0.32300
C3128       C  0.51651117  0.70961758  0.58427754    -0.09800
C3129       C  0.51303613  0.72535047  0.58769215    -0.28600
N3130       N  0.55140992  0.76074952  0.61462861    -0.45200
C3131       C  0.56613355  0.75648041  0.61929477    -0.04500
C3132       C  0.56917271  0.74076828  0.61565520    -0.21900
H3133       H  0.56031576  0.71069707  0.60345291     0.19900
H3134       H  0.52162729  0.75574593  0.60073929     0.18700
H3135       H  0.50244074  0.73180969  0.58468939     0.15000
H3136       H  0.57981406  0.73412099  0.61805619     0.14900
H3137       H  0.53667515  0.69479164  0.58861345     0.33000
H3138       H  0.54608443  0.77177004  0.61590653     0.35800
C3139       C  0.52189211  0.67853413  0.49197624     0.21400
C3140       C  0.52548513  0.68774181  0.47883451    -0.38500
C3141       C  0.52762078  0.67950904  0.46473384     0.20400
C3142       C  0.52632566  0.66330744  0.46372875     0.23000
C3143       C  0.52289679  0.65403309  0.47697275    -0.39000
C3144       C  0.52072176  0.66230507  0.49115176     0.21800
N3145       N  0.51815293  0.68374356  0.50638986    -0.32300
C3146       C  0.51451689  0.67080136  0.51488106    -0.09800
C3147       C  0.51616164  0.65713881  0.50586608    -0.28600
N3148       N  0.52921962  0.65837793  0.44894555    -0.45200
C3149       C  0.53254414  0.67156509  0.44062422    -0.04500
C3150       C  0.53155977  0.68494687  0.45005954    -0.21900
H3151       H  0.52634517  0.70042979  0.47950147     0.19900
H3152       H  0.52179249  0.64136926  0.47624984     0.18700
H3153       H  0.51329807  0.64521891  0.50926984     0.15000
H3154       H  0.53410471  0.69697556  0.44677800     0.14900
H3155       H  0.51734351  0.69546685  0.51000653     0.33000
H3156       H  0.52967478  0.64675265  0.44495861     0.35800
C3157       C  0.22603584  0.38520880  0.60950144     0.21400
C3158       C  0.21579118  0.39692814  0.61521557    -0.38500
C3159       C  0.21748388  0.40075302  0.63120436     0.20400
C3160       C  0.22858015  0.39341164  0.64065972     0.23000
C3161       C  0.23884637  0.38178993  0.63494295    -0.39000
C3162       C  0.23712028  0.37795384  0.61902270     0.21800
N3163       N  0.22615372  0.37879236  0.59504744    -0.32300
C3164       C  0.23738652  0.36740462  0.59538649    -0.09800
C3165       C  0.24449029  0.36651439  0.61015106    -0.28600
N3166       N  0.22666673  0.39764526  0.65570792    -0.45200
C3167       C  0.21419202  0.40762346  0.65598006    -0.04500
C3168       C  0.20826431  0.41012239  0.64087104    -0.21900
H3169       H  0.20674847  0.40219509  0.60791644     0.19900
H3170       H  0.24711441  0.37570480  0.64251570     0.18700
H3171       H  0.25348726  0.35831934  0.61399251     0.15000
H3172       H  0.19776527  0.41662595  0.63762943     0.14900
H3173       H  0.21878004  0.38171914  0.58563314     0.33000
H3174       H  0.23277722  0.39312341  0.66538421     0.35800
C3175       C  0.17624066  0.31064357  0.57137646     0.21400
C3176       C  0.16096062  0.31439580  0.57666276    -0.38500
C3177       C  0.15435551  0.30399321  0.58768780     0.20400
C3178       C  0.16235550  0.29084195  0.59305219     0.23000
C3179       C  0.17754854  0.28701436  0.58768533    -0.39000
C3180       C  0.18413610  0.29739601  0.57667006     0.21800
N3181       N  0.18589330  0.31972926  0.56266145    -0.32300
C3182       C  0.20008454  0.31231238  0.56258628    -0.09800
C3183       C  0.19930905  0.29820799  0.57096568    -0.28600
N3184       N  0.15412703  0.28359398  0.60447090    -0.45200
C3185       C  0.14079130  0.29220214  0.60646198    -0.04500
C3186       C  0.14045380  0.30494878  0.59610425    -0.21900
H3187       H  0.15496966  0.32505347  0.57306022     0.19900
H3188       H  0.18409057  0.27711442  0.59234694     0.18700
H3189       H  0.20901182  0.29045065  0.57392365     0.15000
H3190       H  0.13154545  0.31405498  0.59530736     0.14900
H3191       H  0.18341412  0.33096591  0.55834779     0.33000
H3192       H  0.15761979  0.27372239  0.61089295     0.35800
C3193       C  0.32323690  0.11541538  0.60455904     0.21400
C3194       C  0.33261895  0.10267551  0.60954449    -0.38500
C3195       C  0.33111206  0.09844966  0.62544943     0.20400
C3196       C  0.32082826  0.10626556  0.63543646     0.23000
C3197       C  0.31150082  0.11894866  0.63047738    -0.39000
C3198       C  0.31316810  0.12327564  0.61470956     0.21800
N3199       N  0.32357494  0.12263004  0.59050331    -0.32300
C3200       C  0.31377778  0.13521669  0.59178075    -0.09800
C3201       C  0.30703079  0.13598360  0.60671441    -0.28600
N3202       N  0.32313182  0.10177602  0.65032074    -0.45200
C3203       C  0.33525561  0.09138239  0.65005753    -0.04500
C3204       C  0.34033542  0.08861546  0.63467497    -0.21900
H3205       H  0.34113949  0.09710256  0.60185153     0.19900
H3206       H  0.30418963  0.12557108  0.63857435     0.18700
H3207       H  0.29926220  0.14500583  0.61131623     0.15000
H3208       H  0.35057808  0.08193930  0.63098896     0.14900
H3209       H  0.33056740  0.11956550  0.58082936     0.33000
H3210       H  0.31784708  0.10673913  0.66026539     0.35800
C3211       C  0.27829635  0.23906873  0.56463526     0.21400
C3212       C  0.27374452  0.25200699  0.57394405    -0.38500
C3213       C  0.27291302  0.26654372  0.56609946     0.20400
C3214       C  0.27610353  0.26796441  0.55018772     0.23000
C3215       C  0.28059364  0.25509715  0.54092962    -0.39000
C3216       C  0.28162470  0.24068950  0.54877484     0.21800
N3217       N  0.28099316  0.22417317  0.56934526    -0.32300
C3218       C  0.28621673  0.21643260  0.55636203    -0.09800
C3219       C  0.28663486  0.22633240  0.54334251    -0.28600
N3220       N  0.27389054  0.28280247  0.54532755    -0.45200
C3221       C  0.26934005  0.29099274  0.55821991    -0.04500
C3222       C  0.26868695  0.28130656  0.57145787    -0.21900
H3223       H  0.27123121  0.25088400  0.58637514     0.19900
H3224       H  0.28326838  0.25625318  0.52853420     0.18700
H3225       H  0.29087065  0.22358831  0.53163933     0.15000
H3226       H  0.26469224  0.28443122  0.58314911     0.14900
H3227       H  0.28014127  0.21977908  0.58079070     0.33000
H3228       H  0.27482834  0.28698181  0.53381424     0.35800
C3229       C  0.37965738  0.19523078  0.57109988     0.21400
C3230       C  0.39504030  0.19162904  0.57617610    -0.38500
C3231       C  0.40182108  0.20231219  0.58686278     0.20400
C3232       C  0.39390906  0.21560732  0.59206958     0.23000
C3233       C  0.37861925  0.21925910  0.58694296    -0.39000
C3234       C  0.37182150  0.20855050  0.57636131     0.21800
N3235       N  0.36980946  0.18587544  0.56284291    -0.32300
C3236       C  0.35556168  0.19316963  0.56317468    -0.09800
C3237       C  0.35646702  0.20742155  0.57129294    -0.28600
N3238       N  0.40210440  0.22290043  0.60349583    -0.45200
C3239       C  0.41528616  0.21414160  0.60567304    -0.04500
C3240       C  0.41564237  0.20132143  0.59538246    -0.21900
H3241       H  0.40092992  0.18083175  0.57279469     0.19900
H3242       H  0.37210464  0.22918372  0.59162305     0.18700
H3243       H  0.34678549  0.21513433  0.57444376     0.15000
H3244       H  0.42432362  0.19197374  0.59494220     0.14900
H3245       H  0.37220978  0.17454888  0.55869282     0.33000
H3246       H  0.39856412  0.23275208  0.60997063     0.35800
C3247       C  0.31063658  0.88429186  0.33816277     0.21400
C3248       C  0.30730560  0.88913236  0.32274981    -0.38500
C3249       C  0.31773018  0.90020472  0.31634134     0.20400
C3250       C  0.33044078  0.90618546  0.32467356     0.23000
C3251       C  0.33380911  0.90126187  0.34008146    -0.39000
C3252       C  0.32346498  0.89006413  0.34644517     0.21800
N3253       N  0.30330261  0.87293128  0.34635405    -0.32300
C3254       C  0.31160921  0.87134723  0.35989052    -0.09800
C3255       C  0.32423233  0.88186768  0.36039902    -0.28600
N3256       N  0.33966314  0.91500530  0.31529115    -0.45200
C3257       C  0.33299609  0.91427776  0.30081435    -0.04500
C3258       C  0.31918441  0.90534928  0.30109214    -0.21900
H3259       H  0.29779401  0.88402468  0.31594595     0.19900
H3260       H  0.34418433  0.90524908  0.34635508     0.18700
H3261       H  0.33315658  0.88290333  0.36946120     0.15000
H3262       H  0.31209438  0.90173560  0.29111734     0.14900
H3263       H  0.29366091  0.86622266  0.34268312     0.33000
H3264       H  0.35067210  0.91975940  0.31814850     0.35800
C3265       C  0.27862952  0.76528469  0.38289777     0.21400
C3266       C  0.27748289  0.75188770  0.37320629    -0.38500
C3267       C  0.27569202  0.73747484  0.38108802     0.20400
C3268       C  0.27512443  0.73658085  0.39734470     0.23000
C3269       C  0.27634089  0.74988950  0.40698071    -0.39000
C3270       C  0.27810158  0.76421857  0.39913626     0.21800
N3271       N  0.28104957  0.78028256  0.37844460    -0.32300
C3272       C  0.28227224  0.78870106  0.39198689    -0.09800
C3273       C  0.28034172  0.77908101  0.40509463    -0.28600
N3274       N  0.27206872  0.72186946  0.40201192    -0.45200
C3275       C  0.27046108  0.71327325  0.38869069    -0.04500
C3276       C  0.27290707  0.72250527  0.37534503    -0.21900
H3277       H  0.27779405  0.75264677  0.36049964     0.19900
H3278       H  0.27581435  0.74914854  0.41968378     0.18700
H3279       H  0.28138233  0.78237333  0.41736222     0.15000
H3280       H  0.27146405  0.71905393  0.36316263     0.14900
H3281       H  0.28273490  0.78436259  0.36698041     0.33000
H3282       H  0.27012304  0.71812964  0.41355158     0.35800
C3283       C  0.39436865  0.79465043  0.36662339     0.21400
C3284       C  0.38919423  0.80516172  0.37838183    -0.38500
C3285       C  0.37294332  0.80484434  0.38172843     0.20400
C3286       C  0.36279314  0.79476345  0.37388382     0.23000
C3287       C  0.36796740  0.78419691  0.36233084    -0.39000
C3288       C  0.38409495  0.78452299  0.35901229     0.21800
N3289       N  0.40868595  0.79406559  0.35984051    -0.32300
C3290       C  0.40740147  0.78358329  0.34783336    -0.09800
C3291       C  0.39230522  0.77723199  0.34709442    -0.28600
N3292       N  0.34777884  0.79817771  0.37730473    -0.45200
C3293       C  0.34814580  0.81060211  0.38728576    -0.04500
C3294       C  0.36367948  0.81496669  0.39064629    -0.21900
H3295       H  0.39705133  0.81362002  0.38379477     0.19900
H3296       H  0.35983673  0.77695039  0.35569016     0.18700
H3297       H  0.38761120  0.76938703  0.33820540     0.15000
H3298       H  0.36757854  0.82512293  0.39728213     0.14900
H3299       H  0.41842921  0.80112147  0.36254648     0.33000
H3300       H  0.33779450  0.79311242  0.37217332     0.35800
C3301       C  0.14255705  0.13586867  0.43831481     0.21400
C3302       C  0.12742128  0.14147111  0.44193534    -0.38500
C3303       C  0.12129986  0.15283881  0.43163525     0.20400
C3304       C  0.12956631  0.15826732  0.41868903     0.23000
C3305       C  0.14473500  0.15267178  0.41510792    -0.39000
C3306       C  0.15086624  0.14131581  0.42541201     0.21800
N3307       N  0.15048621  0.12419880  0.44552748    -0.32300
C3308       C  0.16392252  0.12224556  0.43710467    -0.09800
C3309       C  0.16460508  0.13273607  0.42454723    -0.28600
N3310       N  0.12031700  0.16742662  0.40959439    -0.45200
C3311       C  0.10599439  0.16755517  0.41667811    -0.04500
C3312       C  0.10628431  0.15882491  0.43057054    -0.21900
H3313       H  0.12059354  0.13676585  0.45159573     0.19900
H3314       H  0.15100501  0.15633187  0.40465262     0.18700
H3315       H  0.17366220  0.13353516  0.41561440     0.15000
H3316       H  0.09634498  0.15584451  0.43797843     0.14900
H3317       H  0.14678173  0.11766802  0.45523548     0.33000
H3318       H  0.12307990  0.17187415  0.39849593     0.35800
C3319       C  0.25555534  0.12333752  0.47926974     0.21400
C3320       C  0.27065181  0.13012299  0.48127829    -0.38500
C3321       C  0.27342625  0.13746472  0.49598101     0.20400
C3322       C  0.26197336  0.13790596  0.50757922     0.23000
C3323       C  0.24704290  0.13128567  0.50554914    -0.39000
C3324       C  0.24433027  0.12404328  0.49106157     0.21800
N3325       N  0.24977143  0.11550922  0.46664112    -0.32300
C3326       C  0.23479538  0.11139648  0.47064380    -0.09800
C3327       C  0.23111066  0.11650995  0.48575315    -0.28600
N3328       N  0.26738425  0.14488984  0.52063396    -0.45200
C3329       C  0.28249329  0.14902243  0.51764704    -0.04500
C3330       C  0.28673844  0.14471963  0.50226926    -0.21900
H3331       H  0.27958108  0.12958191  0.47219651     0.19900
H3332       H  0.23818534  0.13159866  0.51471616     0.18700
H3333       H  0.22013126  0.11492150  0.49205474     0.15000
H3334       H  0.29807258  0.14629437  0.49664012     0.14900
H3335       H  0.25556514  0.11316731  0.45604516     0.33000
H3336       H  0.26118584  0.14649099  0.53113885     0.35800
C3337       C  0.15586002  0.03729122  0.36680628     0.21400
C3338       C  0.15983867  0.03520457  0.38268630    -0.38500
C3339       C  0.17236017  0.04445929  0.38826950     0.20400
C3340       C  0.18040869  0.05498567  0.37880325     0.23000
C3341       C  0.17646254  0.05700793  0.36289655    -0.39000
C3342       C  0.16389858  0.04779490  0.35732045     0.21800
N3343       N  0.14352419  0.03098236  0.35905277    -0.32300
C3344       C  0.14369621  0.03759516  0.34455086    -0.09800
C3345       C  0.15626590  0.04805967  0.34302955    -0.28600
N3346       N  0.19028821  0.06393311  0.38743824    -0.45200
C3347       C  0.18823250  0.05924731  0.40252331    -0.04500
C3348       C  0.17739061  0.04694683  0.40342521    -0.21900
H3349       H  0.15312122  0.02758827  0.39035634     0.19900
H3350       H  0.18218132  0.06572814  0.35561272     0.18700
H3351       H  0.15901935  0.05541297  0.33302401     0.15000
H3352       H  0.17258380  0.04168883  0.41397369     0.14900
H3353       H  0.13515085  0.02318536  0.36354532     0.33000
H3354       H  0.19672711  0.07363356  0.38355425     0.35800
C3355       C  0.25045896  0.88608163  0.46958357     0.21400
C3356       C  0.26484107  0.87778915  0.46793138    -0.38500
C3357       C  0.26836773  0.87225916  0.45263360     0.20400
C3358       C  0.25833108  0.87495628  0.44006764     0.23000
C3359       C  0.24406974  0.88316022  0.44171305    -0.39000
C3360       C  0.24052202  0.88851301  0.45689305     0.21800
N3361       N  0.24414423  0.89237162  0.48279190    -0.32300
C3362       C  0.23008769  0.89873949  0.47836126    -0.09800
C3363       C  0.22747789  0.89648350  0.46231804    -0.28600
N3364       N  0.26392037  0.86827870  0.42688129    -0.45200
C3365       C  0.27763230  0.86108433  0.43085521    -0.04500
C3366       C  0.28090174  0.86335889  0.44687498    -0.21900
H3367       H  0.27259185  0.87563784  0.47782610     0.19900
H3368       H  0.23617036  0.88505640  0.43187854     0.18700
H3369       H  0.21732061  0.90016402  0.45551422     0.15000
H3370       H  0.29087564  0.85887033  0.45345022     0.14900
H3371       H  0.24899210  0.89221409  0.49409489     0.33000
H3372       H  0.25854882  0.86840411  0.41581237     0.35800
C3373       C  0.20276677  0.99225077  0.48371318     0.21400
C3374       C  0.21273296  0.00498106  0.48061745    -0.38500
C3375       C  0.20518680  0.01933472  0.47782188     0.20400
C3376       C  0.18893193  0.02097056  0.47833218     0.23000
C3377       C  0.17891898  0.00816297  0.48135133    -0.39000
C3378       C  0.18648943  0.99367648  0.48390744     0.21800
N3379       N  0.20715817  0.97741761  0.48666662    -0.32300
C3380       C  0.19366016  0.96917826  0.48862549    -0.09800
C3381       C  0.18043106  0.97888688  0.48695353    -0.28600
N3382       N  0.18468750  0.03564857  0.47431305    -0.45200
C3383       C  0.19831611  0.04322718  0.47092462    -0.04500
C3384       C  0.21136268  0.03348646  0.47308619    -0.21900
H3385       H  0.22543385  0.00370819  0.48007290     0.19900
H3386       H  0.16619733  0.00933229  0.48136855     0.18700
H3387       H  0.16815014  0.97569618  0.48832542     0.15000
H3388       H  0.22359824  0.03609568  0.47054625     0.14900
H3389       H  0.21870547  0.97317687  0.48753510     0.33000
H3390       H  0.17319314  0.03991220  0.47287332     0.35800
C3391       C  0.15990294  0.95405422  0.59819565     0.21400
C3392       C  0.17156792  0.94356433  0.59277166    -0.38500
C3393       C  0.17701478  0.94615534  0.57737827     0.20400
C3394       C  0.17124430  0.95832593  0.56820700     0.23000
C3395       C  0.15969482  0.96883552  0.57365564    -0.39000
C3396       C  0.15421000  0.96618523  0.58894368     0.21800
N3397       N  0.15185399  0.95332025  0.61180411    -0.32300
C3398       C  0.14092531  0.96499910  0.61112425    -0.09800
C3399       C  0.14206697  0.97330474  0.59706557    -0.28600
N3400       N  0.17648558  0.95701409  0.55339818    -0.45200
C3401       C  0.18554596  0.94386765  0.55295872    -0.04500
C3402       C  0.18643141  0.93688505  0.56778223    -0.21900
H3403       H  0.17549180  0.93363344  0.59970797     0.19900
H3404       H  0.15470716  0.97788287  0.56620105     0.18700
H3405       H  0.13461947  0.98285673  0.59307401     0.15000
H3406       H  0.19166106  0.92563348  0.57068555     0.14900
H3407       H  0.15330460  0.94502491  0.62073845     0.33000
H3408       H  0.17298315  0.96388654  0.54382572     0.35800
C3409       C  0.41125242  0.37691656  0.43410275     0.21400
C3410       C  0.42720059  0.37355396  0.43679741    -0.38500
C3411       C  0.43379825  0.36185024  0.42721069     0.20400
C3412       C  0.42521884  0.35394077  0.41580507     0.23000
C3413       C  0.40920943  0.35737416  0.41305066    -0.39000
C3414       C  0.40259546  0.36918654  0.42262994     0.21800
N3415       N  0.40265683  0.38833903  0.44091480    -0.32300
C3416       C  0.38844083  0.38802581  0.43365619    -0.09800
C3417       C  0.38789381  0.37618349  0.42223860    -0.28600
N3418       N  0.43468246  0.34431182  0.40738908    -0.45200
C3419       C  0.44937310  0.34636712  0.41339417    -0.04500
C3420       C  0.44921506  0.35711898  0.42580453    -0.21900
H3421       H  0.43414156  0.38002412  0.44532049     0.19900
H3422       H  0.40256552  0.35170619  0.40375706     0.18700
H3423       H  0.37827165  0.37350550  0.41429267     0.15000
H3424       H  0.45926044  0.36168814  0.43222275     0.14900
H3425       H  0.40644405  0.39628440  0.44950752     0.33000
H3426       H  0.43158092  0.33771820  0.39747230     0.35800
C3427       C  0.28031380  0.37319709  0.49923921     0.21400
C3428       C  0.28178293  0.37919546  0.48382802    -0.38500
C3429       C  0.29656304  0.38577683  0.48000159     0.20400
C3430       C  0.30881465  0.38629275  0.49076840     0.23000
C3431       C  0.30730921  0.38050030  0.50611168    -0.39000
C3432       C  0.29265170  0.37394815  0.50988851     0.21800
N3433       N  0.26778825  0.36583546  0.50572172    -0.32300
C3434       C  0.27228752  0.36190748  0.52056949    -0.09800
C3435       C  0.28768257  0.36687747  0.52354953    -0.28600
N3436       N  0.32164413  0.39296562  0.48444736    -0.45200
C3437       C  0.31768162  0.39694733  0.46953074    -0.04500
C3438       C  0.30209201  0.39261410  0.46624216    -0.21900
H3439       H  0.27220530  0.37864627  0.47541415     0.19900
H3440       H  0.31694352  0.38091727  0.51447512     0.18700
H3441       H  0.29447196  0.36522833  0.53421708     0.15000
H3442       H  0.29565849  0.39437380  0.45538047     0.14900
H3443       H  0.25697200  0.36343245  0.50032874     0.33000
H3444       H  0.33243792  0.39491674  0.49006778     0.35800
C3445       C  0.42113226  0.66140942  0.53135478     0.21400
C3446       C  0.40576065  0.65619528  0.53455572    -0.38500
C3447       C  0.39973886  0.64481585  0.52418687     0.20400
C3448       C  0.40825889  0.63922800  0.51143396     0.23000
C3449       C  0.42346019  0.64460662  0.50807381    -0.39000
C3450       C  0.42957558  0.65575290  0.51856467     0.21800
N3451       N  0.43062899  0.66954328  0.54113326    -0.32300
C3452       C  0.44522456  0.66859438  0.53469841    -0.09800
C3453       C  0.44491243  0.66044587  0.52046878    -0.28600
N3454       N  0.40083951  0.62706952  0.50457784    -0.45200
C3455       C  0.38757969  0.62481778  0.51311555    -0.04500
C3456       C  0.38636286  0.63574748  0.52531761    -0.21900
H3457       H  0.39947265  0.65975010  0.54506285     0.19900
H3458       H  0.43052683  0.63949158  0.49876415     0.18700
H3459       H  0.45494510  0.65668345  0.51352327     0.15000
H3460       H  0.37739831  0.63633194  0.53436732     0.14900
H3461       H  0.42778024  0.67369252  0.55236072     0.33000
H3462       H  0.40493529  0.62022437  0.49520581     0.35800
C3463       C  0.30103779  0.62548938  0.46777559     0.21400
C3464       C  0.28605428  0.63232904  0.46538717    -0.38500
C3465       C  0.28318869  0.63828596  0.45017832     0.20400
C3466       C  0.29449465  0.63753131  0.43844975     0.23000
C3467       C  0.30939507  0.63087271  0.44085400    -0.39000
C3468       C  0.31217578  0.62487565  0.45588512     0.21800
N3469       N  0.30657462  0.61836521  0.48083910    -0.32300
C3470       C  0.32128139  0.61324052  0.47706664    -0.09800
C3471       C  0.32515250  0.61715025  0.46164904    -0.28600
N3472       N  0.28891680  0.64337051  0.42493480    -0.45200
C3473       C  0.27387608  0.64788979  0.42783799    -0.04500
C3474       C  0.26982184  0.64501342  0.44353153    -0.21900
H3475       H  0.27720297  0.63268303  0.47455271     0.19900
H3476       H  0.31809511  0.63011745  0.43156120     0.18700
H3477       H  0.33594395  0.61443033  0.45538839     0.15000
H3478       H  0.25860780  0.64726295  0.44919481     0.14900
H3479       H  0.30068976  0.61691289  0.49153282     0.33000
H3480       H  0.29496147  0.64402892  0.41424755     0.35800
C3481       C  0.36052691  0.51926218  0.47648694     0.21400
C3482       C  0.36949550  0.50577352  0.47316247    -0.38500
C3483       C  0.36082856  0.49211023  0.46986063     0.20400
C3484       C  0.34448663  0.49191648  0.46983857     0.23000
C3485       C  0.33552467  0.50536895  0.47329345    -0.39000
C3486       C  0.34418560  0.51900786  0.47660267     0.21800
N3487       N  0.36591422  0.53362039  0.48033013    -0.32300
C3488       C  0.35289100  0.54248419  0.48301900    -0.09800
C3489       C  0.33912997  0.53380913  0.48078898    -0.28600
N3490       N  0.33907248  0.47764146  0.46572284    -0.45200
C3491       C  0.35205883  0.46865698  0.46318527    -0.04500
C3492       C  0.36584466  0.47724637  0.46570556    -0.21900
H3493       H  0.38226816  0.50591745  0.47310039     0.19900
H3494       H  0.32275190  0.50523983  0.47335307     0.18700
H3495       H  0.32707857  0.53767558  0.48253975     0.15000
H3496       H  0.37788914  0.47332588  0.46404865     0.14900
H3497       H  0.37769790  0.53699987  0.48169714     0.33000
H3498       H  0.32728419  0.47431753  0.46435993     0.35800
C3499       C  0.37534200  0.54818457  0.56535245     0.21400
C3500       C  0.38665021  0.53743087  0.57086182    -0.38500
C3501       C  0.39207187  0.53996245  0.58623423     0.20400
C3502       C  0.38652917  0.55222297  0.59545335     0.23000
C3503       C  0.37500372  0.56281630  0.59004861    -0.39000
C3504       C  0.36963681  0.56034850  0.57462140     0.21800
N3505       N  0.37056654  0.54994411  0.55041461    -0.32300
C3506       C  0.36190216  0.56336379  0.55007129    -0.09800
C3507       C  0.36071805  0.57001275  0.56502767    -0.28600
N3508       N  0.39477930  0.55316438  0.60891460    -0.45200
C3509       C  0.40567870  0.54147421  0.60825289    -0.04500
C3510       C  0.40427678  0.53287660  0.59434266    -0.21900
H3511       H  0.39165658  0.52841984  0.56334686     0.19900
H3512       H  0.37128131  0.57286396  0.59696473     0.18700
H3513       H  0.35578615  0.58137784  0.56804725     0.15000
H3514       H  0.41170464  0.52329918  0.59035113     0.14900
H3515       H  0.37423424  0.54324935  0.54075744     0.33000
H3516       H  0.39350200  0.56165502  0.61773074     0.35800
C3517       C  0.16422240  0.71551756  0.35144072     0.21400
C3518       C  0.18006261  0.71823339  0.35529827    -0.38500
C3519       C  0.18683161  0.70752313  0.36586435     0.20400
C3520       C  0.17847281  0.69509150  0.37225148     0.23000
C3521       C  0.16260918  0.69236204  0.36835688    -0.39000
C3522       C  0.15584872  0.70303868  0.35770909     0.21800
N3523       N  0.15556020  0.72318565  0.34063909    -0.32300
C3524       C  0.14161112  0.71547025  0.33995508    -0.09800
C3525       C  0.14129422  0.70291362  0.35049777    -0.28600
N3526       N  0.18805255  0.68572431  0.38074901    -0.45200
C3527       C  0.20262550  0.69212622  0.37949441    -0.04500
C3528       C  0.20228293  0.70578215  0.37042884    -0.21900
H3529       H  0.18683271  0.72756030  0.34990115     0.19900
H3530       H  0.15621016  0.68227788  0.37274732     0.18700
H3531       H  0.13198713  0.69435305  0.35205436     0.15000
H3532       H  0.21223370  0.71281281  0.36669030     0.14900
H3533       H  0.15916363  0.73262353  0.33366927     0.33000
H3534       H  0.18512191  0.67500537  0.38597093     0.35800
C3535       C  0.17412903  0.81249948  0.06976269     0.21400
C3536       C  0.15873863  0.81569366  0.07500857    -0.38500
C3537       C  0.15248749  0.80494574  0.08586613     0.20400
C3538       C  0.16090069  0.79199116  0.09111216     0.23000
C3539       C  0.17623714  0.78879047  0.08589386    -0.39000
C3540       C  0.18247835  0.79952759  0.07508124     0.21800
N3541       N  0.18350362  0.82200040  0.06120965    -0.32300
C3542       C  0.19795376  0.81513487  0.06142047    -0.09800
C3543       C  0.19765696  0.80101359  0.06972793    -0.28600
N3544       N  0.15292858  0.78436229  0.10241551    -0.45200
C3545       C  0.13937421  0.79257016  0.10443125    -0.04500
C3546       C  0.13860696  0.80540849  0.09425831    -0.21900
H3547       H  0.15240661  0.82619435  0.07152265     0.19900
H3548       H  0.18312741  0.77912477  0.09055357     0.18700
H3549       H  0.20764177  0.79369567  0.07287149     0.15000
H3550       H  0.12948019  0.81431331  0.09365148     0.14900
H3551       H  0.18069481  0.83319985  0.05700141     0.33000
H3552       H  0.15674965  0.77458573  0.10880133     0.35800
C3553       C  0.11385133  0.75368278  0.23765395     0.21400
C3554       C  0.12320831  0.75686914  0.22442667    -0.38500
C3555       C  0.11510871  0.75765615  0.21004065     0.20400
C3556       C  0.09893901  0.75555014  0.20897121     0.23000
C3557       C  0.08961668  0.75233294  0.22213961    -0.39000
C3558       C  0.09770405  0.75147574  0.23645646     0.21800
N3559       N  0.11875497  0.75129215  0.25251021    -0.32300
C3560       C  0.10561663  0.74733726  0.26066659    -0.09800
C3561       C  0.09227392  0.74752260  0.25109784    -0.28600
N3562       N  0.09393523  0.75765273  0.19416271    -0.45200
C3563       C  0.10700148  0.76111079  0.18571402    -0.04500
C3564       C  0.12047088  0.76110436  0.19515200    -0.21900
H3565       H  0.13584483  0.75851566  0.22525557     0.19900
H3566       H  0.07700041  0.75053560  0.22128785     0.18700
H3567       H  0.08037396  0.74411986  0.25420355     0.15000
H3568       H  0.13236888  0.76424178  0.19178229     0.14900
H3569       H  0.13039946  0.75130745  0.25658959     0.33000
H3570       H  0.08226314  0.75747498  0.19019368     0.35800
C3571       C  0.12130231  0.85084443  0.16838277     0.21400
C3572       C  0.12621400  0.86624973  0.16518375    -0.38500
C3573       C  0.13751520  0.87249014  0.17551642     0.20400
C3574       C  0.14362076  0.86401778  0.18802619     0.23000
C3575       C  0.13872637  0.84860709  0.19123524    -0.39000
C3576       C  0.12733721  0.84241063  0.18096156     0.21800
N3577       N  0.11217177  0.84164727  0.15924357    -0.32300
C3578       C  0.11263112  0.82721234  0.16592989    -0.09800
C3579       C  0.12175706  0.82731711  0.17961108    -0.28600
N3580       N  0.15512195  0.87216212  0.19530773    -0.45200
C3581       C  0.15629668  0.88591202  0.18735033    -0.04500
C3582       C  0.14545268  0.88656895  0.17501416    -0.21900
H3583       H  0.12203645  0.87267417  0.15501239     0.19900
H3584       H  0.14390715  0.84170063  0.20060507     0.18700
H3585       H  0.12521812  0.81728668  0.18665834     0.15000
H3586       H  0.14406391  0.89582634  0.16639538     0.14900
H3587       H  0.10734366  0.84457499  0.14831469     0.33000
H3588       H  0.16207713  0.86839956  0.20473415     0.35800
C3589       C  0.03265026  0.72578716  0.09397317     0.21400
C3590       C  0.03397570  0.74071627  0.10105955    -0.38500
C3591       C  0.04897154  0.74450816  0.10707538     0.20400
C3592       C  0.06154409  0.73412314  0.10614449     0.23000
C3593       C  0.06021906  0.71925640  0.09916928    -0.39000
C3594       C  0.04533778  0.71553946  0.09310970     0.21800
N3595       N  0.01979604  0.71935746  0.08720323    -0.32300
C3596       C  0.02442786  0.70494567  0.08206056    -0.09800
C3597       C  0.04026946  0.70218768  0.08552819    -0.28600
N3598       N  0.07455997  0.74043052  0.11245335    -0.45200
C3599       C  0.07040333  0.75499767  0.11743329    -0.04500
C3600       C  0.05448819  0.75801930  0.11435032    -0.21900
H3601       H  0.02412295  0.74880821  0.10171884     0.19900
H3602       H  0.07010880  0.71121056  0.09840747     0.18700
H3603       H  0.04715455  0.69177826  0.08286320     0.15000
H3604       H  0.04790609  0.76861772  0.11700485     0.14900
H3605       H  0.00859895  0.72441158  0.08618326     0.33000
H3606       H  0.08567117  0.73513980  0.11325158     0.35800
C3607       C  0.06192790  0.61766562  0.84047728     0.21400
C3608       C  0.05850964  0.60252283  0.83487212    -0.38500
C3609       C  0.06958683  0.59606200  0.82442082     0.20400
C3610       C  0.08307672  0.60402554  0.81988418     0.23000
C3611       C  0.08652382  0.61914039  0.82556658    -0.39000
C3612       C  0.07541479  0.62563850  0.83595950     0.21800
N3613       N  0.05401043  0.62580263  0.85154116    -0.32300
C3614       C  0.06258887  0.63899082  0.85413284    -0.09800
C3615       C  0.07591557  0.63938594  0.84451769    -0.28600
N3616       N  0.09260337  0.59462711  0.81134883    -0.45200
C3617       C  0.08524496  0.58050963  0.81071160    -0.04500
C3618       C  0.07078137  0.58103868  0.81854622    -0.21900
H3619       H  0.04835831  0.59596402  0.83891314     0.19900
H3620       H  0.09739326  0.62512629  0.82264976     0.18700
H3621       H  0.08520952  0.64810539  0.84448622     0.15000
H3622       H  0.06296291  0.57128206  0.82097691     0.14900
H3623       H  0.04383645  0.62226837  0.85747785     0.33000
H3624       H  0.10405138  0.59716935  0.80760617     0.35800
C3625       C  0.02244208  0.66078653  0.98866278     0.21400
C3626       C  0.02270995  0.65242691  0.97435091    -0.38500
C3627       C  0.02709655  0.66114641  0.96101653     0.20400
C3628       C  0.03101286  0.67692241  0.96195595     0.23000
C3629       C  0.03085199  0.68522500  0.97621402    -0.39000
C3630       C  0.02631994  0.67658193  0.98946496     0.21800
N3631       N  0.01764888  0.65556114  0.00282347    -0.32300
C3632       C  0.01828975  0.66819733  0.01259695    -0.09800
C3633       C  0.02372992  0.68147088  0.00468792    -0.28600
N3634       N  0.03490754  0.68254714  0.94775537    -0.45200
C3635       C  0.03357494  0.67029182  0.93762831    -0.04500
C3636       C  0.02866621  0.65671532  0.94543246    -0.21900
H3637       H  0.01949713  0.64013024  0.97361158     0.19900
H3638       H  0.03374192  0.69760735  0.97688633     0.18700
H3639       H  0.02484624  0.69330745  0.00927230     0.15000
H3640       H  0.02707185  0.64507884  0.94049567     0.14900
H3641       H  0.01332482  0.64436644  0.00544997     0.33000
H3642       H  0.03878605  0.69392001  0.94520512     0.35800
C3643       C  0.11554397  0.65126879  0.92910518     0.21400
C3644       C  0.12124944  0.64046765  0.94018649    -0.38500
C3645       C  0.13704544  0.63598426  0.93844593     0.20400
C3646       C  0.14649831  0.64185709  0.92656177     0.23000
C3647       C  0.14078887  0.65277546  0.91547789    -0.39000
C3648       C  0.12489709  0.65725244  0.91719731     0.21800
N3649       N  0.10051396  0.65577763  0.92722747    -0.32300
C3650       C  0.10009166  0.66461783  0.91398566    -0.09800
C3651       C  0.11514623  0.66601848  0.90744987    -0.28600
N3652       N  0.16054200  0.63446069  0.92648068    -0.45200
C3653       C  0.15993155  0.62373146  0.93827701    -0.04500
C3654       C  0.14552297  0.62446840  0.94612326    -0.21900
H3655       H  0.11368262  0.63529318  0.94902171     0.19900
H3656       H  0.14794844  0.65684316  0.90576788     0.18700
H3657       H  0.11825747  0.67143669  0.89636879     0.15000
H3658       H  0.14140860  0.61687134  0.95545851     0.14900
H3659       H  0.09089629  0.65211888  0.93396392     0.33000
H3660       H  0.16964143  0.63597981  0.91831852     0.35800
C3661       C  0.87491519  0.69581732  0.57004555     0.21400
C3662       C  0.89099538  0.69297737  0.57313874    -0.38500
C3663       C  0.89796045  0.70260760  0.58472012     0.20400
C3664       C  0.88955630  0.71423242  0.59251606     0.23000
C3665       C  0.87357009  0.71706512  0.58943309    -0.39000
C3666       C  0.86662838  0.70742171  0.57798649     0.21800
N3667       N  0.86507463  0.68713444  0.56104462    -0.32300
C3668       C  0.85044819  0.69317790  0.56354361    -0.09800
C3669       C  0.85104309  0.70591343  0.57388813    -0.28600
N3670       N  0.89827351  0.72072107  0.60402573    -0.45200
C3671       C  0.91229632  0.71307214  0.60378979    -0.04500
C3672       C  0.91264430  0.70180787  0.59177446    -0.21900
H3673       H  0.89738623  0.68345341  0.56755186     0.19900
H3674       H  0.86680140  0.72560563  0.59607523     0.18700
H3675       H  0.84117440  0.71237319  0.57879071     0.15000
H3676       H  0.92199197  0.69349751  0.58921129     0.14900
H3677       H  0.86791550  0.67698352  0.55470380     0.04200
H3678       H  0.89456838  0.72918644  0.61216134     0.35800
C3679       C  0.93402330  0.65010473  0.66656637     0.21400
C3680       C  0.92868237  0.63482279  0.66334284    -0.38500
C3681       C  0.91879102  0.62814445  0.67474204     0.20400
C3682       C  0.91443835  0.63609841  0.68830496     0.23000
C3683       C  0.91974577  0.65137662  0.69152659    -0.39000
C3684       C  0.92964804  0.65803833  0.68014166     0.21800
N3685       N  0.94176655  0.65973723  0.65669228    -0.32300
C3686       C  0.94201238  0.67394488  0.66391721    -0.09800
C3687       C  0.93474560  0.67328364  0.67861432    -0.28600
N3688       N  0.90351159  0.62794664  0.69633185    -0.45200
C3689       C  0.90084747  0.61475870  0.68776531    -0.04500
C3690       C  0.91029619  0.61437346  0.67433672    -0.21900
H3691       H  0.93133415  0.62889640  0.65237076     0.19900
H3692       H  0.91571991  0.65794106  0.70169199     0.18700
H3693       H  0.93211138  0.68304515  0.68639138     0.15000
H3694       H  0.91005434  0.60577902  0.66492192     0.14900
H3695       H  0.94513013  0.65725270  0.64511254     0.33000
H3696       H  0.89755409  0.63157003  0.70646615     0.35800
C3697       C  0.00015122  0.74688181  0.84349269     0.21400
C3698       C  0.01483686  0.74476837  0.85095523    -0.38500
C3699       C  0.01752117  0.72978751  0.85745500     0.20400
C3700       C  0.00642874  0.71787980  0.85651354     0.23000
C3701       C  0.99180766  0.71998004  0.84914159    -0.39000
C3702       C  0.98913561  0.73489422  0.84273064     0.21800
N3703       N  0.99464827  0.75990963  0.83627040    -0.32300
C3704       C  0.98004672  0.75605172  0.83093803    -0.09800
C3705       C  0.97624573  0.74059801  0.83481132    -0.28600
N3706       N  0.01178901  0.70472339  0.86336342    -0.45200
C3707       C  0.02642187  0.70819712  0.86876053    -0.04500
C3708       C  0.03043880  0.72373612  0.86535259    -0.21900
H3709       H  0.02353245  0.75405491  0.85161191     0.19900
H3710       H  0.98314939  0.71065687  0.84840631     0.18700
H3711       H  0.96545255  0.73434287  0.83213250     0.15000
H3712       H  0.04135916  0.72971334  0.86812560     0.14900
H3713       H  0.00042194  0.77069088  0.83505941     0.33000
H3714       H  0.00587642  0.69398222  0.86422045     0.35800
C3715       C  0.95292048  0.75780123  0.73634853     0.21400
C3716       C  0.96247065  0.75437636  0.72329519    -0.38500
C3717       C  0.95448489  0.75030664  0.70941927     0.20400
C3718       C  0.93818418  0.74989598  0.70851134     0.23000
C3719       C  0.92859231  0.75328322  0.72163213    -0.39000
C3720       C  0.93661808  0.75714748  0.73563401     0.21800
N3721       N  0.95775598  0.76197565  0.75081739    -0.32300
C3722       C  0.94451784  0.76389880  0.75955322    -0.09800
C3723       C  0.93103609  0.76094916  0.75049746    -0.28600
N3724       N  0.93353772  0.74522572  0.69407385    -0.45200
C3725       C  0.94697769  0.74246923  0.68582040    -0.04500
C3726       C  0.96027600  0.74553508  0.69501683    -0.21900
H3727       H  0.97522316  0.75465815  0.72396118     0.19900
H3728       H  0.91584521  0.75275136  0.72103188     0.18700
H3729       H  0.91884029  0.76192213  0.75415060     0.15000
H3730       H  0.97252854  0.74397237  0.69176744     0.14900
H3731       H  0.96940453  0.76362114  0.75449294     0.33000
H3732       H  0.92195102  0.74339843  0.69026501     0.35800
C3733       C  0.92488585  0.84746925  0.77199301     0.21400
C3734       C  0.91344698  0.85335621  0.76158127    -0.38500
C3735       C  0.90735262  0.86825596  0.76522947     0.20400
C3736       C  0.91240250  0.87673317  0.77820124     0.23000
C3737       C  0.92393573  0.87087624  0.78858968    -0.39000
C3738       C  0.92995640  0.85586864  0.78501880     0.21800
N3739       N  0.93046066  0.83270800  0.77242552    -0.32300
C3740       C  0.93892656  0.83147334  0.78591410    -0.09800
C3741       C  0.93920525  0.84581431  0.79395399    -0.28600
N3742       N  0.90383608  0.88997292  0.77981930    -0.45200
C3743       C  0.89318879  0.88987312  0.76787609    -0.04500
C3744       C  0.89507287  0.87653802  0.75846797    -0.21900
H3745       H  0.90893975  0.84642455  0.75187418     0.19900
H3746       H  0.92729049  0.87714812  0.79916849     0.18700
H3747       H  0.94377814  0.84799831  0.80565026     0.15000
H3748       H  0.88800571  0.87306337  0.74843479     0.14900
H3749       H  0.92736419  0.82356587  0.76480122     0.33000
H3750       H  0.90478702  0.89828504  0.78883589     0.35800
C3751       C  0.98932325  0.89119737  0.34000377     0.21400
C3752       C  0.99149599  0.90706841  0.33614453    -0.38500
C3753       C  0.98061083  0.91344610  0.32545375     0.20400
C3754       C  0.96854675  0.90468513  0.31879783     0.23000
C3755       C  0.96658871  0.88866385  0.32241279    -0.39000
C3756       C  0.97735084  0.88233037  0.33333565     0.21800
N3757       N  0.99645196  0.88323636  0.35171493    -0.32300
C3758       C  0.98887416  0.86924732  0.35264670    -0.09800
C3759       C  0.97707257  0.86816024  0.34120584    -0.28600
N3760       N  0.95827155  0.91413204  0.31113080    -0.45200
C3761       C  0.96371848  0.92899155  0.31325858    -0.04500
C3762       C  0.97774063  0.92892967  0.32186168    -0.21900
H3763       H  0.00020966  0.91428169  0.34204021     0.19900
H3764       H  0.95665758  0.88195830  0.31803865     0.18700
H3765       H  0.96857340  0.85878239  0.33972493     0.15000
H3766       H  0.98411561  0.93904817  0.32627294     0.14900
H3767       H  0.00516365  0.88748532  0.35931289     0.33000
H3768       H  0.94746635  0.91085204  0.30617597     0.35800
C3769       C  0.04315298  0.78848566  0.35671122     0.21400
C3770       C  0.05868863  0.78562854  0.35188715    -0.38500
C3771       C  0.06109349  0.77184508  0.34319513     0.20400
C3772       C  0.04900131  0.76154393  0.33952960     0.23000
C3773       C  0.03335220  0.76439436  0.34443780    -0.39000
C3774       C  0.03090641  0.77830800  0.35319909     0.21800
N3775       N  0.03790928  0.80100093  0.36480787    -0.32300
C3776       C  0.02216088  0.79895417  0.36659861    -0.09800
C3777       C  0.01730559  0.78486567  0.35954704    -0.28600
N3778       N  0.05457649  0.74927347  0.33106166    -0.45200
C3779       C  0.07030458  0.75190139  0.32946453    -0.04500
C3780       C  0.07471793  0.76587433  0.33682306    -0.21900
H3781       H  0.06822687  0.79363619  0.35462844     0.19900
H3782       H  0.02380407  0.75644217  0.34158802     0.18700
H3783       H  0.00544761  0.78020322  0.35892964     0.15000
H3784       H  0.08640305  0.77096427  0.33747730     0.14900
H3785       H  0.04466684  0.81047986  0.36878458     0.33000
H3786       H  0.04814039  0.73973859  0.32669982     0.35800
C3787       C  0.92564056  0.85155753  0.41917038     0.21400
C3788       C  0.90936149  0.85452240  0.41774168    -0.38500
C3789       C  0.90312325  0.86598269  0.42799927     0.20400
C3790       C  0.91232321  0.87373165  0.43902824     0.23000
C3791       C  0.92851878  0.87070414  0.44052902    -0.39000
C3792       C  0.93477779  0.85947002  0.43013807     0.21800
N3793       N  0.93482227  0.84292368  0.40942918    -0.32300
C3794       C  0.94988553  0.84569697  0.41408792    -0.09800
C3795       C  0.95024426  0.85576292  0.42706686    -0.28600
N3796       N  0.90406196  0.88525642  0.44616645    -0.45200
C3797       C  0.88954406  0.88504400  0.43947885    -0.04500
C3798       C  0.88846231  0.87306783  0.42823290    -0.21900
H3799       H  0.90227393  0.84904600  0.40866156     0.19900
H3800       H  0.93591633  0.87734760  0.44851869     0.18700
H3801       H  0.96056532  0.86071508  0.43271477     0.15000
H3802       H  0.87859857  0.87057513  0.42052613     0.14900
H3803       H  0.93118008  0.83664567  0.39947890     0.33000
H3804       H  0.90834162  0.89340635  0.45432539     0.35800
C3805       C  0.07230921  0.88047867  0.61257880     0.21400
C3806       C  0.08317653  0.88621302  0.62373881    -0.38500
C3807       C  0.08066775  0.90172500  0.62895160     0.20400
C3808       C  0.06824692  0.91075207  0.62340818     0.23000
C3809       C  0.05734794  0.90499336  0.61236017    -0.39000
C3810       C  0.05988097  0.88954310  0.60713002     0.21800
N3811       N  0.07299485  0.86675482  0.60469927    -0.32300
C3812       C  0.06102677  0.86711767  0.59406566    -0.09800
C3813       C  0.05249121  0.88111328  0.59532516    -0.28600
N3814       N  0.06953618  0.92564311  0.62848961    -0.45200
C3815       C  0.08289378  0.92626187  0.63726605    -0.04500
C3816       C  0.09007600  0.91148369  0.63805665    -0.21900
H3817       H  0.09329696  0.87938268  0.62747006     0.19900
H3818       H  0.04806531  0.91231600  0.60755449     0.18700
H3819       H  0.04275908  0.88496182  0.58802116     0.15000
H3820       H  0.10141553  0.90865152  0.64320318     0.14900
H3821       H  0.08157803  0.85799824  0.60593803     0.33000
H3822       H  0.06238303  0.93510814  0.62519652     0.35800
C3823       C  0.02234106  0.77307816  0.59200070     0.21400
C3824       C  0.02074218  0.75819639  0.59919616    -0.38500
C3825       C  0.00553342  0.75461011  0.60496570     0.20400
C3826       C  0.99312391  0.76515847  0.60370993     0.23000
C3827       C  0.99473079  0.77986512  0.59668745    -0.39000
C3828       C  0.00968374  0.78332579  0.59087829     0.21800
N3829       N  0.03530239  0.77950317  0.58533004    -0.32300
C3830       C  0.03056118  0.79384118  0.58000441    -0.09800
C3831       C  0.01472594  0.79651515  0.58328972    -0.28600
N3832       N  0.97994676  0.75931987  0.61002143    -0.45200
C3833       C  0.98373743  0.74486994  0.61545748    -0.04500
C3834       C  0.99962786  0.74139187  0.61250600    -0.21900
H3835       H  0.03051127  0.75003411  0.60015095     0.19900
H3836       H  0.98496049  0.78803271  0.59572691     0.18700
H3837       H  0.00778040  0.80684543  0.58050452     0.15000
H3838       H  0.00599504  0.73080292  0.61563300     0.14900
H3839       H  0.04655028  0.77451856  0.58447475     0.33000
H3840       H  0.96899049  0.76494141  0.61069816     0.35800
C3841       C  0.02644674  0.84092205  0.48885976     0.21400
C3842       C  0.02535358  0.84990552  0.47503422    -0.38500
C3843       C  0.02044648  0.84176894  0.46148881     0.20400
C3844       C  0.01671815  0.82592857  0.46174095     0.23000
C3845       C  0.01793634  0.81690270  0.47553192    -0.39000
C3846       C  0.02304747  0.82500084  0.48903118     0.21800
N3847       N  0.03162977  0.84571730  0.50305263    -0.32300
C3848       C  0.03183611  0.83270812  0.51226022    -0.09800
C3849       C  0.02650425  0.81956654  0.50393810    -0.28600
N3850       N  0.01216360  0.82101699  0.44737926    -0.45200
C3851       C  0.01315601  0.83377423  0.43785354    -0.04500
C3852       C  0.01829149  0.84694078  0.44624046    -0.21900
H3853       H  0.02832382  0.86228000  0.47479214     0.19900
H3854       H  0.01534206  0.80444059  0.47568291     0.18700
H3855       H  0.02591424  0.80753726  0.50804355     0.15000
H3856       H  0.01984058  0.85878221  0.44185987     0.14900
H3857       H  0.03566512  0.85694142  0.50602734     0.33000
H3858       H  0.00845632  0.80971928  0.44427717     0.35800
C3859       C  0.12506706  0.85078439  0.53414477     0.21400
C3860       C  0.14059918  0.85551438  0.53758988    -0.38500
C3861       C  0.14696200  0.86703807  0.52757130     0.20400
C3862       C  0.13840703  0.87345629  0.51525366     0.23000
C3863       C  0.12294597  0.86884695  0.51191396    -0.39000
C3864       C  0.11671209  0.85723879  0.52172138     0.21800
N3865       N  0.11579319  0.84103099  0.54253788    -0.32300
C3866       C  0.10146959  0.84148427  0.53538671    -0.09800
C3867       C  0.10171980  0.85130826  0.52228937    -0.28600
N3868       N  0.14665059  0.88473261  0.50795277    -0.45200
C3869       C  0.16060516  0.88556862  0.51561867    -0.04500
C3870       C  0.16131329  0.87468752  0.52791384    -0.21900
H3871       H  0.14709327  0.85086451  0.54752357     0.19900
H3872       H  0.11611084  0.87420200  0.50257882     0.18700
H3873       H  0.09183684  0.85474718  0.51497129     0.15000
H3874       H  0.17078124  0.87304104  0.53631345     0.14900
H3875       H  0.11864545  0.83546269  0.55311546     0.33000
H3876       H  0.14282898  0.89176044  0.49862693     0.35800
C3877       C  0.12842158  0.66270736  0.26922742     0.21400
C3878       C  0.14000082  0.65691942  0.25889730    -0.38500
C3879       C  0.14492755  0.64139044  0.26151513     0.20400
C3880       C  0.13877050  0.63233860  0.27354201     0.23000
C3881       C  0.12716357  0.63813429  0.28387981    -0.39000
C3882       C  0.12220732  0.65369130  0.28125565     0.21800
N3883       N  0.12322747  0.67757785  0.27026440    -0.32300
C3884       C  0.11378640  0.67822473  0.28312869    -0.09800
C3885       C  0.11261395  0.66344912  0.29018346    -0.28600
N3886       N  0.14610731  0.61832342  0.27418550    -0.45200
C3887       C  0.15703168  0.61842973  0.26252455    -0.04500
C3888       C  0.15661600  0.63261792  0.25430049    -0.21900
H3889       H  0.14524268  0.66420116  0.24987695     0.19900
H3890       H  0.12278308  0.63124344  0.29363230     0.18700
H3891       H  0.10690729  0.66061831  0.30120514     0.15000
H3892       H  0.16418364  0.63621951  0.24471318     0.14900
H3893       H  0.12692252  0.68703558  0.26335827     0.33000
H3894       H  0.14409107  0.60937104  0.28234246     0.35800
C3895       C  0.22982372  0.60158670  0.31350012     0.21400
C3896       C  0.24056823  0.61325805  0.31799187    -0.38500
C3897       C  0.23926361  0.61856341  0.33349701     0.20400
C3898       C  0.22800125  0.61275183  0.34372930     0.23000
C3899       C  0.21707795  0.60116853  0.33915695    -0.39000
C3900       C  0.21843132  0.59577812  0.32359096     0.21800
N3901       N  0.22778831  0.59588172  0.29899278    -0.32300
C3902       C  0.21482137  0.58661805  0.29957999    -0.09800
C3903       C  0.20872855  0.58600663  0.31482827    -0.28600
N3904       N  0.22854760  0.62051952  0.35747925    -0.45200
C3905       C  0.24016534  0.63135823  0.35592279    -0.04500
C3906       C  0.24719391  0.63045524  0.34114959    -0.21900
H3907       H  0.24897128  0.61823399  0.30981626     0.19900
H3908       H  0.20786313  0.59709932  0.34695470     0.18700
H3909       H  0.19785713  0.58053139  0.31861221     0.15000
H3910       H  0.25627211  0.63800773  0.33637912     0.14900
H3911       H  0.23404786  0.59924703  0.28896294     0.33000
H3912       H  0.22102006  0.61900373  0.36709717     0.35800
C3913       C  0.41190409  0.63145153  0.17693767     0.21400
C3914       C  0.42330193  0.63710073  0.16635033    -0.38500
C3915       C  0.42858187  0.65253201  0.16905521     0.20400
C3916       C  0.42291552  0.66152722  0.18143968     0.23000
C3917       C  0.41172298  0.65580403  0.19211422    -0.39000
C3918       C  0.40638703  0.64048999  0.18934174     0.21800
N3919       N  0.40361107  0.61803717  0.17578492    -0.32300
C3920       C  0.39267732  0.61866368  0.18742623    -0.09800
C3921       C  0.39414671  0.63240657  0.19623430    -0.28600
N3922       N  0.42748810  0.67652332  0.17995122    -0.45200
C3923       C  0.43594996  0.67726064  0.16645893    -0.04500
C3924       C  0.43726704  0.66243345  0.15949533    -0.21900
H3925       H  0.42695234  0.63039094  0.15613998     0.19900
H3926       H  0.40668321  0.66316373  0.20123275     0.18700
H3927       H  0.38665938  0.63637473  0.20576637     0.15000
H3928       H  0.44206553  0.65970629  0.14800943     0.14900
H3929       H  0.40474460  0.60939617  0.16709091     0.33000
H3930       H  0.42373183  0.68599885  0.18685816     0.35800
C3931       C  0.28577706  0.57617895  0.21792528     0.21400
C3932       C  0.27252204  0.56662823  0.22014744    -0.38500
C3933       C  0.25834940  0.57456952  0.22310985     0.20400
C3934       C  0.25739681  0.59081401  0.22380870     0.23000
C3935       C  0.27072988  0.60040722  0.22166443    -0.39000
C3936       C  0.28497351  0.59243146  0.21871819     0.21800
N3937       N  0.30043820  0.57141672  0.21437613    -0.32300
C3938       C  0.30911559  0.58468497  0.21288227    -0.09800
C3939       C  0.29993609  0.59807277  0.21562244    -0.28600
N3940       N  0.24267924  0.59538079  0.22765386    -0.45200
C3941       C  0.23432069  0.58191960  0.22959670    -0.04500
C3942       C  0.24367526  0.56872760  0.22670799    -0.21900
H3943       H  0.27321527  0.55391907  0.21968394     0.19900
H3944       H  0.27007706  0.61310936  0.22231892     0.18700
H3945       H  0.30352526  0.61024685  0.21467581     0.15000
H3946       H  0.24044273  0.55649280  0.22807436     0.14900
H3947       H  0.30419920  0.55984289  0.21255942     0.33000
H3948       H  0.23883088  0.60686972  0.22980018     0.35800
C3949       C  0.33356875  0.60021905  0.12245695     0.21400
C3950       C  0.33815913  0.60670130  0.10796096    -0.38500
C3951       C  0.32760781  0.61758979  0.10127754     0.20400
C3952       C  0.31351758  0.62166803  0.10845092     0.23000
C3953       C  0.30883368  0.61506736  0.12280464    -0.39000
C3954       C  0.31941791  0.60429989  0.12953808     0.21800
N3955       N  0.34263774  0.59181444  0.13241658    -0.32300
C3956       C  0.33436806  0.59092698  0.14603309    -0.09800
C3957       C  0.31971036  0.59827996  0.14453393    -0.28600
N3958       N  0.30622080  0.63324324  0.10047831    -0.45200
C3959       C  0.31567272  0.63653942  0.08807382    -0.04500
C3960       C  0.32910036  0.62697183  0.08813047    -0.21900
H3961       H  0.34953162  0.60417197  0.10273797     0.19900
H3962       H  0.29819850  0.61880916  0.12879694     0.18700
H3963       H  0.31125527  0.60060145  0.15380114     0.15000
H3964       H  0.33888742  0.62723843  0.07996070     0.14900
H3965       H  0.35442160  0.58859334  0.13071531     0.33000
H3966       H  0.29561937  0.63878161  0.10346452     0.35800
C3967       C  0.16283798  0.45688936  0.09744741     0.21400
C3968       C  0.17473028  0.44662268  0.09208865    -0.38500
C3969       C  0.17893330  0.44812981  0.07617732     0.20400
C3970       C  0.17181583  0.45912367  0.06646818     0.23000
C3971       C  0.16014578  0.46951329  0.07186749    -0.39000
C3972       C  0.15588092  0.46792272  0.08768015     0.21800
N3973       N  0.15529109  0.45638154  0.11134385    -0.32300
C3974       C  0.14337446  0.46702328  0.11032792    -0.09800
C3975       C  0.14349617  0.47460660  0.09581317    -0.28600
N3976       N  0.17591464  0.45667297  0.05145534    -0.45200
C3977       C  0.18560811  0.44398695  0.05145252    -0.04500
C3978       C  0.18807399  0.43846398  0.06670629    -0.21900
H3979       H  0.17956956  0.43744071  0.09947175     0.19900
H3980       H  0.15403978  0.47749596  0.06402878     0.18700
H3981       H  0.13497057  0.48300366  0.09138698     0.15000
H3982       H  0.19423233  0.42785315  0.07016372     0.14900
H3983       H  0.15747646  0.44856410  0.12056653     0.33000
H3984       H  0.17137006  0.46251475  0.04163084     0.35800
C3985       C  0.13828404  0.50606630  0.20403105     0.21400
C3986       C  0.14626544  0.50746535  0.21856642    -0.38500
C3987       C  0.15190109  0.52264654  0.22228989     0.20400
C3988       C  0.14957019  0.53526736  0.21227283     0.23000
C3989       C  0.14166042  0.53389093  0.19794846    -0.39000
C3990       C  0.13619035  0.51889402  0.19424385     0.21800
N3991       N  0.13236708  0.49296317  0.19721553    -0.32300
C3992       C  0.12665817  0.49770679  0.18303116    -0.09800
C3993       C  0.12880270  0.51376567  0.18088699    -0.28600
N3994       N  0.15643316  0.54824958  0.21786019    -0.45200
C3995       C  0.16338509  0.54411448  0.23155512    -0.04500
C3996       C  0.16079276  0.52819430  0.23487190    -0.21900
H3997       H  0.14823892  0.49747428  0.22619467     0.19900
H3998       H  0.14018810  0.54376668  0.19005527     0.18700
H3999       H  0.12569065  0.52072851  0.17068892     0.15000
H4000       H  0.16512253  0.52155248  0.24483557     0.14900
H4001       H  0.13255039  0.48153732  0.20171120     0.33000
H4002       H  0.15668159  0.55926222  0.21242399     0.35800
C4003       C  0.07352295  0.37807897  0.11400544     0.21400
C4004       C  0.08438928  0.38408584  0.12503293    -0.38500
C4005       C  0.08183209  0.39970231  0.12993364     0.20400
C4006       C  0.06938163  0.40857482  0.12420798     0.23000
C4007       C  0.05851695  0.40256604  0.11327700    -0.39000
C4008       C  0.06107370  0.38701662  0.10839345     0.21800
N4009       N  0.07431462  0.36426210  0.10627356    -0.32300
C4010       C  0.06241560  0.36449329  0.09555299    -0.09800
C4011       C  0.05377827  0.37842694  0.09667558    -0.28600
N4012       N  0.07064970  0.42358415  0.12891753    -0.45200
C4013       C  0.08405591  0.42445846  0.13759024    -0.04500
C4014       C  0.09124701  0.40970875  0.13876526    -0.21900
H4015       H  0.09455849  0.37738336  0.12886249     0.19900
H4016       H  0.04925310  0.40977958  0.10827307     0.18700
H4017       H  0.04413582  0.38220354  0.08921719     0.15000
H4018       H  0.10263863  0.40704412  0.14388521     0.14900
H4019       H  0.08298497  0.35559602  0.10757561     0.33000
H4020       H  0.06349865  0.43295776  0.12536061     0.35800
C4021       C  0.00840386  0.50306262  0.13613706     0.21400
C4022       C  0.02202766  0.50113539  0.12688522    -0.38500
C4023       C  0.03611225  0.49842433  0.13520136     0.20400
C4024       C  0.03650537  0.49762188  0.15146468     0.23000
C4025       C  0.02295459  0.49965105  0.16069402    -0.39000
C4026       C  0.00893702  0.50242984  0.15240312     0.21800
N4027       N  0.99372198  0.50654845  0.13117645    -0.32300
C4028       C  0.98495132  0.50839638  0.14440150    -0.09800
C4029       C  0.99401693  0.50577382  0.15785108    -0.28600
N4030       N  0.05107256  0.49411313  0.15655139    -0.45200
C4031       C  0.06009213  0.49262245  0.14348257    -0.04500
C4032       C  0.05123193  0.49538499  0.12989891    -0.21900
H4033       H  0.02168717  0.50172022  0.11416924     0.19900
H4034       H  0.02331254  0.49914001  0.17341535     0.18700
H4035       H  0.99039126  0.50705068  0.16999802     0.15000
H4036       H  0.05509249  0.49435443  0.11780378     0.14900
H4037       H  0.99012426  0.50850001  0.11957884     0.33000
H4038       H  0.05452119  0.49217202  0.16819478     0.35800
C4039       C  0.97547881  0.62253090  0.11372721     0.21400
C4040       C  0.96449283  0.61708044  0.12490363    -0.38500
C4041       C  0.96629953  0.60130964  0.12964349     0.20400
C4042       C  0.97805995  0.59178412  0.12351138     0.23000
C4043       C  0.98904997  0.59724174  0.11250872    -0.39000
C4044       C  0.98735836  0.61294742  0.10793824     0.21800
N4045       N  0.97549165  0.63646573  0.10619343    -0.32300
C4046       C  0.98745641  0.63564028  0.09557442    -0.09800
C4047       C  0.99521353  0.62122706  0.09647961    -0.28600
N4048       N  0.97617153  0.57687069  0.12818563    -0.45200
C4049       C  0.96311008  0.57669435  0.13735939    -0.04500
C4050       C  0.95672286  0.59180216  0.13881056    -0.21900
H4051       H  0.95484517  0.62434390  0.12905028     0.19900
H4052       H  0.99784857  0.58958052  0.10732214     0.18700
H4053       H  0.00468049  0.61699763  0.08904042     0.15000
H4054       H  0.94572246  0.59506327  0.14440554     0.14900
H4055       H  0.96740766  0.64565673  0.10765141     0.33000
H4056       H  0.98272426  0.56715262  0.12439066     0.35800
C4057       C  0.37311368  0.45933521  0.38068567     0.21400
C4058       C  0.38455293  0.46993514  0.37532617    -0.38500
C4059       C  0.39020347  0.46725301  0.36009952     0.20400
C4060       C  0.38469572  0.45504587  0.35080538     0.23000
C4061       C  0.37313475  0.44447498  0.35613223    -0.39000
C4062       C  0.36759899  0.44703722  0.37149835     0.21800
N4063       N  0.36795776  0.45794318  0.39549307    -0.32300
C4064       C  0.35930101  0.44457390  0.39594754    -0.09800
C4065       C  0.35849811  0.43755236  0.38110848    -0.28600
N4066       N  0.39294586  0.45420438  0.33734427    -0.45200
C4067       C  0.40382939  0.46586106  0.33814787    -0.04500
C4068       C  0.40245939  0.47430294  0.35214901    -0.21900
H4069       H  0.38941913  0.47900636  0.38284851     0.19900
H4070       H  0.36944915  0.43444281  0.34918708     0.18700
H4071       H  0.35360964  0.42615342  0.37820788     0.15000
H4072       H  0.40985818  0.48383969  0.35624504     0.14900
H4073       H  0.37137408  0.46487846  0.40506998     0.33000
H4074       H  0.39167872  0.44580285  0.32842784     0.35800
C4075       C  0.40478730  0.52058740  0.25779773     0.21400
C4076       C  0.39808722  0.53558071  0.25618734    -0.38500
C4077       C  0.39086332  0.53869651  0.24170869     0.20400
C4078       C  0.39041379  0.52778826  0.22960654     0.23000
C4079       C  0.39712670  0.51267711  0.23124723    -0.39000
C4080       C  0.40430774  0.50947881  0.24587927     0.21800
N4081       N  0.41208554  0.51482994  0.27055348    -0.32300
C4082       C  0.41630230  0.49985832  0.26697421    -0.09800
C4083       C  0.41168597  0.49604517  0.25160663    -0.28600
N4084       N  0.38302036  0.53387950  0.21692487    -0.45200
C4085       C  0.37876484  0.54872645  0.22109643    -0.04500
C4086       C  0.38340437  0.55207721  0.23648423    -0.21900
H4087       H  0.39843788  0.54420011  0.26557640     0.19900
H4088       H  0.39675047  0.50405801  0.22186510     0.18700
H4089       H  0.41334776  0.48496399  0.24553490     0.15000
H4090       H  0.38173033  0.56295716  0.24292111     0.14900
H4091       H  0.41395923  0.52073565  0.28118454     0.33000
H4092       H  0.38110467  0.52835608  0.20609805     0.35800
C4093       C  0.47710228  0.41148664  0.32714544     0.21400
C4094       C  0.48833658  0.40611532  0.33802284    -0.38500
C4095       C  0.48669735  0.39048226  0.34288575     0.20400
C4096       C  0.47466998  0.38092538  0.33742740     0.23000
C4097       C  0.46335280  0.38633138  0.32653206    -0.39000
C4098       C  0.46508656  0.40200603  0.32152006     0.21800
N4099       N  0.47536457  0.42626329  0.32196070    -0.32300
C4100       C  0.46213976  0.42640423  0.31297629    -0.09800
C4101       C  0.45544926  0.41139692  0.31221999    -0.28600
N4102       N  0.47501032  0.36695155  0.34483108    -0.45200
C4103       C  0.48727995  0.36768426  0.35510446    -0.04500
C4104       C  0.49492733  0.38214262  0.35412762    -0.21900
H4105       H  0.49737689  0.41374894  0.34278246     0.19900
H4106       H  0.45362431  0.37904790  0.32266563     0.18700
H4107       H  0.44434116  0.40813910  0.30684252     0.15000
H4108       H  0.50460130  0.38632438  0.36132383     0.14900
H4109       H  0.48222704  0.43594244  0.32518460     0.33000
H4110       H  0.46692823  0.35777343  0.34353196     0.35800
C4111       C  0.65471508  0.53602157  0.36529466     0.21400
C4112       C  0.65856896  0.53315656  0.38109816    -0.38500
C4113       C  0.66973346  0.54337685  0.38778271     0.20400
C4114       C  0.67661614  0.55550828  0.37938798     0.23000
C4115       C  0.67273417  0.55837690  0.36360307    -0.39000
C4116       C  0.66156326  0.54818161  0.35692302     0.21800
N4117       N  0.64328517  0.52906401  0.35675683    -0.32300
C4118       C  0.64277681  0.53698062  0.34292803    -0.09800
C4119       C  0.65412131  0.54883854  0.34254528    -0.28600
N4120       N  0.68544704  0.56464265  0.38888513    -0.45200
C4121       C  0.68394440  0.55843532  0.40346943    -0.04500
C4122       C  0.67438897  0.54507386  0.40319734    -0.21900
H4123       H  0.65270549  0.52416220  0.38792439     0.19900
H4124       H  0.67747037  0.56830626  0.35721840     0.18700
H4125       H  0.65594790  0.55746770  0.33338220     0.15000
H4126       H  0.67025139  0.53836258  0.41318492     0.14900
H4127       H  0.63570852  0.52012456  0.36044646     0.33000
H4128       H  0.69092258  0.57523156  0.38590938     0.35800
C4129       C  0.53768515  0.50337993  0.31443076     0.21400
C4130       C  0.52372211  0.50157904  0.32316792    -0.38500
C4131       C  0.51001602  0.49860260  0.31432553     0.20400
C4132       C  0.51032035  0.49732909  0.29808355     0.23000
C4133       C  0.52421355  0.49916818  0.28938734    -0.39000
C4134       C  0.53781458  0.50231457  0.29817288     0.21800
N4135       N  0.55207950  0.50725989  0.31986706    -0.32300
C4136       C  0.56128390  0.50888479  0.30692617    -0.09800
C4137       C  0.55282527  0.50579856  0.29321173    -0.28600
N4138       N  0.49595409  0.49391149  0.29242793    -0.45200
C4139       C  0.48633280  0.49303139  0.30509901    -0.04500
C4140       C  0.49462704  0.49600557  0.31900447    -0.21900
H4141       H  0.52351563  0.50259569  0.33586352     0.19900
H4142       H  0.52438028  0.49839542  0.27667395     0.18700
H4143       H  0.55689058  0.50684198  0.28118752     0.15000
H4144       H  0.49018779  0.49549551  0.33092961     0.14900
H4145       H  0.55519836  0.50960004  0.33153475     0.33000
H4146       H  0.49297565  0.49178862  0.28068361     0.35800
C4147       C  0.57902727  0.60041480  0.32388730     0.21400
C4148       C  0.58266744  0.61582068  0.32860734    -0.38500
C4149       C  0.57347993  0.62194508  0.34091819     0.20400
C4150       C  0.56152682  0.61341044  0.34797092     0.23000
C4151       C  0.55779797  0.59808510  0.34320392    -0.39000
C4152       C  0.56702080  0.59194238  0.33095883     0.21800
N4153       N  0.58763867  0.59109606  0.31435759    -0.32300
C4154       C  0.58131394  0.57654586  0.31574489    -0.09800
C4155       C  0.56820150  0.57673034  0.32566078    -0.28600
N4156       N  0.55526301  0.62142671  0.36009553    -0.45200
C4157       C  0.56325575  0.63518643  0.36073129    -0.04500
C4158       C  0.57470177  0.63596332  0.34896719    -0.21900
H4159       H  0.59248225  0.62224906  0.32364425     0.19900
H4160       H  0.54896558  0.59113021  0.34918821     0.18700
H4161       H  0.56166547  0.56668952  0.32996702     0.15000
H4162       H  0.58304157  0.64535243  0.34685056     0.14900
H4163       H  0.59823190  0.59403031  0.30880160     0.33000
H4164       H  0.54630556  0.61766871  0.36763103     0.35800
C4165       C  0.63925018  0.36884123  0.18887548     0.21400
C4166       C  0.63290731  0.35413658  0.19276412    -0.38500
C4167       C  0.62209673  0.34782352  0.18194913     0.20400
C4168       C  0.61786071  0.35547686  0.16820588     0.23000
C4169       C  0.62405292  0.37033739  0.16442067    -0.39000
C4170       C  0.63484522  0.37669602  0.17530342     0.21800
N4171       N  0.65087340  0.37658792  0.19643973    -0.32300
C4172       C  0.65384946  0.38953120  0.18764991    -0.09800
C4173       C  0.64397693  0.39006851  0.17448308    -0.28600
N4174       N  0.60927074  0.34589762  0.15884106    -0.45200
C4175       C  0.60826040  0.33201952  0.16665594    -0.04500
C4176       C  0.61587184  0.33294606  0.18118251    -0.21900
H4177       H  0.63677728  0.34765992  0.20302285     0.19900
H4178       H  0.62132856  0.37614860  0.15342547     0.18700
H4179       H  0.64405983  0.39868671  0.16512706     0.15000
H4180       H  0.61803618  0.32341893  0.18934156     0.14900
H4181       H  0.65675204  0.37303473  0.20664018     0.33000
H4182       H  0.60574431  0.34812243  0.14726584     0.35800
C4183       C  0.65528294  0.47993453  0.23200516     0.21400
C4184       C  0.64716582  0.49438568  0.23354283    -0.38500
C4185       C  0.64113285  0.49775082  0.24865889     0.20400
C4186       C  0.64304006  0.48738292  0.26105861     0.23000
C4187       C  0.65115711  0.47314834  0.25956479    -0.39000
C4188       C  0.65716010  0.46985773  0.24463879     0.21800
N4189       N  0.66190028  0.47366332  0.21896550    -0.32300
C4190       C  0.66791371  0.45954120  0.22350438    -0.09800
C4191       C  0.66519675  0.45685545  0.23941846    -0.28600
N4192       N  0.63621050  0.49290638  0.27411537    -0.45200
C4193       C  0.62995339  0.50703796  0.27031340    -0.04500
C4194       C  0.63273378  0.51057081  0.25446575    -0.21900
H4195       H  0.64561112  0.50234046  0.22373563     0.19900
H4196       H  0.65259104  0.46512839  0.26934265     0.18700
H4197       H  0.66848810  0.44661314  0.24623287     0.15000
H4198       H  0.62908586  0.52097535  0.24810018     0.14900
H4199       H  0.66209860  0.47853082  0.20769191     0.33000
H4200       H  0.63595004  0.48738991  0.28508639     0.35800
C4201       C  0.92794022  0.35169424  0.28576325     0.21400
C4202       C  0.92252199  0.36681267  0.28971653    -0.38500
C4203       C  0.91179370  0.37359599  0.27909369     0.20400
C4204       C  0.90681852  0.36590260  0.26559535     0.23000
C4205       C  0.91215157  0.35079452  0.26169945    -0.39000
C4206       C  0.92285111  0.34403014  0.27228746     0.21800
N4207       N  0.93679137  0.34203741  0.29469073    -0.32300
C4208       C  0.93703393  0.32809112  0.28694472    -0.09800
C4209       C  0.92863774  0.32895792  0.27286126    -0.28600
N4210       N  0.89588115  0.37441499  0.25793217    -0.45200
C4211       C  0.89384197  0.38762091  0.26662498    -0.04500
C4212       C  0.90358724  0.38757255  0.27988442    -0.21900
H4213       H  0.92594366  0.37261708  0.30054054     0.19900
H4214       H  0.90779913  0.34450695  0.25149698     0.18700
H4215       H  0.92592824  0.31942154  0.26484131     0.15000
H4216       H  0.90412916  0.39630488  0.28915850     0.14900
H4217       H  0.94112774  0.34433116  0.30598163     0.33000
H4218       H  0.88982764  0.37121956  0.24770905     0.35800
C4219       C  0.89818809  0.46708141  0.21361705     0.21400
C4220       C  0.90614961  0.46842633  0.19929757    -0.38500
C4221       C  0.90991495  0.48371825  0.19469771     0.20400
C4222       C  0.90617201  0.49683063  0.20363910     0.23000
C4223       C  0.89820620  0.49546556  0.21813857    -0.39000
C4224       C  0.89435784  0.48001965  0.22278638     0.21800
N4225       N  0.89247247  0.45384049  0.21989155    -0.32300
C4226       C  0.88483440  0.45817992  0.23318909    -0.09800
C4227       C  0.88587821  0.47443924  0.23556075    -0.28600
N4228       N  0.91088537  0.51007361  0.19626129    -0.45200
C4229       C  0.91756709  0.50514803  0.18257611    -0.04500
C4230       C  0.91713596  0.48883979  0.18125911    -0.21900
H4231       H  0.90890384  0.45828887  0.19206467     0.19900
H4232       H  0.89497836  0.50564429  0.22510468     0.18700
H4233       H  0.88051551  0.48129216  0.24488055     0.15000
H4234       H  0.92153060  0.48166151  0.17167379     0.14900
H4235       H  0.89326776  0.44253713  0.21509490     0.33000
H4236       H  0.90951496  0.52165663  0.20017594     0.35800
C4237       C  0.79005865  0.41473301  0.22656896     0.21400
C4238       C  0.77614680  0.40584719  0.22503256    -0.38500
C4239       C  0.76247730  0.41432536  0.22097795     0.20400
C4240       C  0.76272513  0.43039326  0.21842234     0.23000
C4241       C  0.77660212  0.43928791  0.22000747    -0.39000
C4242       C  0.79020122  0.43085268  0.22430460     0.21800
N4243       N  0.80429366  0.40964723  0.23147030    -0.32300
C4244       C  0.81347735  0.42265191  0.23268338    -0.09800
C4245       C  0.80512086  0.43608747  0.22817646    -0.28600
N4246       N  0.74826139  0.43567063  0.21457094    -0.45200
C4247       C  0.73864451  0.42292357  0.21475801    -0.04500
C4248       C  0.74709334  0.40937406  0.21874438    -0.21900
H4249       H  0.77591787  0.39330161  0.22716294     0.19900
H4250       H  0.77672056  0.45191231  0.21837360     0.18700
H4251       H  0.80913927  0.44816200  0.22858036     0.15000
H4252       H  0.74267724  0.39745908  0.21945307     0.14900
H4253       H  0.80726120  0.39819620  0.23481628     0.33000
H4254       H  0.74516808  0.44722144  0.21171256     0.35800
C4255       C  0.81980405  0.40259977  0.31937454     0.21400
C4256       C  0.80905820  0.39126433  0.32466051    -0.38500
C4257       C  0.81120974  0.38599350  0.34009356     0.20400
C4258       C  0.82297304  0.39186809  0.34974993     0.23000
C4259       C  0.83368907  0.40339952  0.34449976    -0.39000
C4260       C  0.83174789  0.40845238  0.32883556     0.21800
N4261       N  0.82175101  0.40722297  0.30444919    -0.32300
C4262       C  0.83512467  0.41590559  0.30410146    -0.09800
C4263       C  0.84161683  0.41723220  0.31919902    -0.28600
N4264       N  0.82364993  0.38359094  0.36322416    -0.45200
C4265       C  0.81249044  0.37219964  0.36195345    -0.04500
C4266       C  0.80436755  0.37345141  0.34775413    -0.21900
H4267       H  0.80039636  0.38603749  0.31688702     0.19900
H4268       H  0.84349383  0.40727742  0.35169043     0.18700
H4269       H  0.85289540  0.42230717  0.32234569     0.15000
H4270       H  0.79538493  0.36562078  0.34321326     0.14900
H4271       H  0.81512892  0.40348800  0.29477501     0.33000
H4272       H  0.83188216  0.38495474  0.37229175     0.35800
C4273       C  0.72647114  0.40242272  0.13286492     0.21400
C4274       C  0.73716675  0.39124407  0.12697978    -0.38500
C4275       C  0.73437918  0.38602700  0.11158495     0.20400
C4276       C  0.72189593  0.39158444  0.10266789     0.23000
C4277       C  0.71112035  0.40276020  0.10859477    -0.39000
C4278       C  0.71389511  0.40798533  0.12407342     0.21800
N4279       N  0.72556516  0.40764356  0.14772727    -0.32300
C4280       C  0.71222524  0.41642798  0.14865436    -0.09800
C4281       C  0.70472467  0.41718705  0.13401670    -0.28600
N4282       N  0.72121712  0.38395277  0.08879514    -0.45200
C4283       C  0.73323670  0.37336565  0.08896635    -0.04500
C4284       C  0.74174991  0.37435861  0.10297714    -0.21900
H4285       H  0.74656873  0.38642959  0.13414307     0.19900
H4286       H  0.70095219  0.40658634  0.10189301     0.18700
H4287       H  0.69331648  0.42231287  0.13142646     0.15000
H4288       H  0.75157198  0.36707383  0.10664117     0.14900
H4289       H  0.73290089  0.40431578  0.15704020     0.33000
H4290       H  0.71265433  0.38534633  0.08004388     0.35800
C4291       C  0.67897802  0.30214276  0.08167317     0.21400
C4292       C  0.67395137  0.29165504  0.09329827    -0.38500
C4293       C  0.65801694  0.29260382  0.09734690     0.20400
C4294       C  0.64779978  0.30323601  0.09036557     0.23000
C4295       C  0.65284227  0.31374729  0.07861630    -0.39000
C4296       C  0.66889312  0.31277868  0.07451514     0.21800
N4297       N  0.69382064  0.30430617  0.07683840    -0.32300
C4298       C  0.69340643  0.31638939  0.06648391    -0.09800
C4299       C  0.67800118  0.32199613  0.06459952    -0.28600
N4300       N  0.63363825  0.30279741  0.09746064    -0.45200
C4301       C  0.63499952  0.29192906  0.10906810    -0.04500
C4302       C  0.64995775  0.28518563  0.10922860    -0.21900
H4303       H  0.68203430  0.28376819  0.09923138     0.19900
H4304       H  0.64501403  0.32243260  0.07352235     0.18700
H4305       H  0.67416925  0.33202100  0.05775222     0.15000
H4306       H  0.65462526  0.27679107  0.11759461     0.14900
H4307       H  0.70380520  0.29833330  0.08091566     0.33000
H4308       H  0.62394245  0.31006283  0.09514248     0.35800
C4309       C  0.82223478  0.11479736  0.09936087     0.21400
C4310       C  0.83400538  0.10437528  0.10460376    -0.38500
C4311       C  0.83183949  0.09808406  0.11969493     0.20400
C4312       C  0.81882314  0.10185850  0.12879296     0.23000
C4313       C  0.80692525  0.11209423  0.12346417    -0.39000
C4314       C  0.80918972  0.11851066  0.10843920     0.21800
N4315       N  0.82266144  0.12380038  0.08640217    -0.32300
C4316       C  0.80994714  0.13347585  0.08725909    -0.09800
C4317       C  0.80111941  0.13040331  0.10077202    -0.28600
N4318       N  0.82070546  0.09647872  0.14350385    -0.45200
C4319       C  0.83504018  0.08935139  0.14389465    -0.04500
C4320       C  0.84224581  0.08983364  0.12916162    -0.21900
H4321       H  0.84461364  0.10218007  0.09785775     0.19900
H4322       H  0.79720475  0.11566622  0.13092378     0.18700
H4323       H  0.79080740  0.13668960  0.10492179     0.15000
H4324       H  0.85417474  0.08629964  0.12626962     0.14900
H4325       H  0.83161331  0.12401087  0.07794796     0.33000
H4326       H  0.81329547  0.09872802  0.15305871     0.35800
C4327       C  0.76511793  0.26729970  0.04676286     0.21400
C4328       C  0.76629820  0.25330586  0.03808273    -0.38500
C4329       C  0.77034765  0.23985237  0.04669043     0.20400
C4330       C  0.77279460  0.24021192  0.06279505     0.23000
C4331       C  0.77159403  0.25425970  0.07151055    -0.39000
C4332       C  0.76775837  0.26781044  0.06282964     0.21800
N4333       N  0.76109479  0.28156032  0.04129999    -0.32300
C4334       C  0.76109993  0.29130450  0.05393844    -0.09800
C4335       C  0.76537604  0.28320004  0.06758902    -0.28600
N4336       N  0.77758567  0.22602678  0.06797850    -0.45200
C4337       C  0.77852304  0.21672688  0.05501399    -0.04500
C4338       C  0.77392416  0.22489804  0.04156107    -0.21900
H4339       H  0.76448848  0.25297680  0.02547731     0.19900
H4340       H  0.77373906  0.25465462  0.08406195     0.18700
H4341       H  0.76577918  0.28774307  0.07948901     0.15000
H4342       H  0.77417013  0.22074692  0.02951339     0.14900
H4343       H  0.75791076  0.28436039  0.02976442     0.33000
H4344       H  0.78111421  0.22317650  0.07940732     0.35800
C4345       C  0.89459081  0.20757623  0.08758944     0.21400
C4346       C  0.88897136  0.19697036  0.07616544    -0.38500
C4347       C  0.87313076  0.19889233  0.07164993     0.20400
C4348       C  0.86365263  0.21049120  0.07812943     0.23000
C4349       C  0.86931689  0.22120821  0.08939972    -0.39000
C4350       C  0.88513017  0.21928550  0.09389558     0.21800
N4351       N  0.90854631  0.20703909  0.09510177    -0.32300
C4352       C  0.90793043  0.21836213  0.10636321    -0.09800
C4353       C  0.89358716  0.22641725  0.10583278    -0.28600
N4354       N  0.84860294  0.20856730  0.07358416    -0.45200
C4355       C  0.84838506  0.19569375  0.06412056    -0.04500
C4356       C  0.86353362  0.18943556  0.06243532    -0.21900
H4357       H  0.89615445  0.18738574  0.07176367     0.19900
H4358       H  0.86170335  0.22983043  0.09493170     0.18700
H4359       H  0.88949456  0.23549944  0.11379631     0.15000
H4360       H  0.86679090  0.17856257  0.05662972     0.14900
H4361       H  0.91759350  0.19886445  0.09327392     0.33000
H4362       H  0.83885802  0.21498069  0.07756602     0.35800
C4363       C  0.64335761  0.13477633  0.93272215     0.21400
C4364       C  0.63858389  0.14664972  0.92224933    -0.38500
C4365       C  0.62234785  0.14993750  0.92195498     0.20400
C4366       C  0.61178264  0.14195086  0.93142685     0.23000
C4367       C  0.61656422  0.13021902  0.94199714    -0.39000
C4368       C  0.63274431  0.12691662  0.94225304     0.21800
N4369       N  0.65774900  0.12827465  0.93388160    -0.32300
C4370       C  0.65625072  0.11614317  0.94409731    -0.09800
C4371       C  0.64086781  0.11501915  0.94973429    -0.28600
N4372       N  0.59692133  0.14596461  0.92783563    -0.45200
C4373       C  0.59789288  0.15656301  0.91598114    -0.04500
C4374       C  0.61360395  0.15952668  0.91206949    -0.21900
H4375       H  0.64679733  0.15233781  0.91435757     0.19900
H4376       H  0.60818372  0.12358310  0.94891415     0.18700
H4377       H  0.63603758  0.10601218  0.95730852     0.15000
H4378       H  0.61796772  0.16682916  0.90261603     0.14900
H4379       H  0.66775155  0.13128182  0.92736262     0.33000
H4380       H  0.58666594  0.14121768  0.93268918     0.35800
C4381       C  0.74760905  0.11966658  0.98337132     0.21400
C4382       C  0.76214590  0.12768184  0.98408858    -0.38500
C4383       C  0.76572152  0.13493329  0.99858282     0.20400
C4384       C  0.75545263  0.13428869  0.01121675     0.23000
C4385       C  0.74098586  0.12637134  0.01049947    -0.39000
C4386       C  0.73751712  0.11906465  0.99614993     0.21800
N4387       N  0.74147637  0.11166883  0.97109628    -0.32300
C4388       C  0.72743975  0.10595490  0.97619751    -0.09800
C4389       C  0.72459401  0.11034156  0.99175567    -0.28600
N4390       N  0.76146615  0.14183075  0.02369440    -0.45200
C4391       C  0.77575704  0.14735079  0.01921079    -0.04500
C4392       C  0.77888808  0.14331202  0.00354282    -0.21900
H4393       H  0.77012429  0.12810989  0.97416479     0.19900
H4394       H  0.73306002  0.12582589  0.02046629     0.18700
H4395       H  0.71436287  0.10761369  0.99886016     0.15000
H4396       H  0.78934965  0.14600513  0.99677952     0.14900
H4397       H  0.74646345  0.11025785  0.95994274     0.33000
H4398       H  0.75619205  0.14299154  0.03474472     0.35800
C4399       C  0.67449186  0.06048926  0.87832403     0.21400
C4400       C  0.67124578  0.06403503  0.86249983    -0.38500
C4401       C  0.65965270  0.05468452  0.85522796     0.20400
C4402       C  0.65200555  0.04264166  0.86307699     0.23000
C4403       C  0.65530362  0.03904676  0.87879480    -0.39000
C4404       C  0.66673485  0.04844854  0.88606692     0.21800
N4405       N  0.68356594  0.06873101  0.88843804    -0.32300
C4406       C  0.68131349  0.06193280  0.90267827    -0.09800
C4407       C  0.67103430  0.04920493  0.90158859    -0.28600
N4408       N  0.64054731  0.03640137  0.85411181    -0.45200
C4409       C  0.64075266  0.04460825  0.84048793    -0.04500
C4410       C  0.65259566  0.05601861  0.84066198    -0.21900
H4411       H  0.67674022  0.07383822  0.85653936     0.19900
H4412       H  0.64884519  0.03011217  0.88515024     0.18700
H4413       H  0.66638884  0.04218355  0.91113114     0.15000
H4414       H  0.65519662  0.06459175  0.83163524     0.14900
H4415       H  0.68987693  0.07900332  0.88605402     0.33000
H4416       H  0.63262739  0.02757400  0.85732441     0.35800
C4417       C  0.62249586  0.84601281  0.03434815     0.21400
C4418       C  0.63801676  0.85041738  0.03821307    -0.38500
C4419       C  0.64489854  0.86183940  0.02843749     0.20400
C4420       C  0.63696618  0.86827902  0.01572836     0.23000
C4421       C  0.62158150  0.86380660  0.01179618    -0.39000
C4422       C  0.61468825  0.85253580  0.02159727     0.21800
N4423       N  0.61247733  0.83739507  0.04312662    -0.32300
C4424       C  0.59820059  0.83881132  0.03603008    -0.09800
C4425       C  0.59923784  0.84790223  0.02245746    -0.28600
N4426       N  0.64542356  0.87986449  0.00912754    -0.45200
C4427       C  0.65885848  0.88087893  0.01768488    -0.04500
C4428       C  0.65902064  0.86978360  0.02979160    -0.21900
H4429       H  0.64394698  0.84598198  0.04858479     0.19900
H4430       H  0.61508713  0.86941243  0.00236742     0.18700
H4431       H  0.58958979  0.85204339  0.01519188     0.15000
H4432       H  0.66796116  0.86820590  0.03875768     0.14900
H4433       H  0.61480881  0.83237822  0.05410199     0.33000
H4434       H  0.64202837  0.88699962  0.99972154     0.35800
C4435       C  0.68630863  0.98309175  0.97891375     0.21400
C4436       C  0.67683828  0.99633664  0.97598264    -0.38500
C4437       C  0.68499042  0.01048958  0.97362789     0.20400
C4438       C  0.70131115  0.01131534  0.97399973     0.23000
C4439       C  0.71074808  0.99814242  0.97706083    -0.39000
C4440       C  0.70261269  0.98405405  0.97952453     0.21800
N4441       N  0.68147671  0.96847545  0.98247503    -0.32300
C4442       C  0.69480781  0.96021625  0.98561129    -0.09800
C4443       C  0.70820854  0.96949529  0.98375350    -0.28600
N4444       N  0.70625212  0.02591700  0.97070864    -0.45200
C4445       C  0.69299134  0.03448145  0.96833916    -0.04500
C4446       C  0.67947323  0.02534419  0.97017483    -0.21900
H4447       H  0.66408471  0.99569372  0.97567627     0.19900
H4448       H  0.72349136  0.99883570  0.97759403     0.18700
H4449       H  0.72034385  0.96627420  0.98612337     0.15000
H4450       H  0.66733076  0.02890131  0.96839846     0.14900
H4451       H  0.66981617  0.96463947  0.98370356     0.33000
H4452       H  0.71792143  0.02973740  0.96973506     0.35800
C4453       C  0.67317639  0.95513173  0.07023478     0.21400
C4454       C  0.66276601  0.96667773  0.07595473    -0.38500
C4455       C  0.65712070  0.96435158  0.09128468     0.20400
C4456       C  0.66156282  0.95150077  0.10024381     0.23000
C4457       C  0.67209586  0.94002059  0.09456359    -0.39000
C4458       C  0.67775642  0.94234896  0.07922477     0.21800
N4459       N  0.67847532  0.95361545  0.05543037    -0.32300
C4460       C  0.68648344  0.93979268  0.05492529    -0.09800
C4461       C  0.68649028  0.93250540  0.06960869    -0.28600
N4462       N  0.65330960  0.95109969  0.11373926    -0.45200
C4463       C  0.64341671  0.96366911  0.11332634    -0.04500
C4464       C  0.64559466  0.97233628  0.09957856    -0.21900
H4465       H  0.65869145  0.97630729  0.06868428     0.19900
H4466       H  0.67502698  0.92961826  0.10129124     0.18700
H4467       H  0.69085248  0.92087149  0.07242649     0.15000
H4468       H  0.63897752  0.98253560  0.09574626     0.14900
H4469       H  0.67581753  0.96097154  0.04594886     0.33000
H4470       H  0.65377106  0.94231922  0.12232611     0.35800
C4471       C  0.73757028  0.61928135  0.83903558     0.21400
C4472       C  0.74183724  0.61368318  0.82411871    -0.38500
C4473       C  0.73142119  0.60284383  0.81728979     0.20400
C4474       C  0.71770311  0.59797931  0.82465847     0.23000
C4475       C  0.71342034  0.60362421  0.83959365    -0.39000
C4476       C  0.72392904  0.61436773  0.84650337     0.21800
N4477       N  0.74492102  0.63045208  0.84750794    -0.32300
C4478       C  0.73591904  0.63262899  0.86049133    -0.09800
C4479       C  0.72278088  0.62275286  0.86033585    -0.28600
N4480       N  0.70882128  0.58926430  0.81481815    -0.45200
C4481       C  0.71684185  0.58885558  0.80103949    -0.04500
C4482       C  0.73108550  0.59696399  0.80224756    -0.21900
H4483       H  0.75214989  0.61797515  0.81797862     0.19900
H4484       H  0.70241002  0.60038454  0.84514908     0.18700
H4485       H  0.71329496  0.62230612  0.86884319     0.15000
H4486       H  0.73922331  0.59970323  0.79283151     0.14900
H4487       H  0.75514325  0.63656377  0.84441796     0.33000
H4488       H  0.69729718  0.58537732  0.81678651     0.35800
C4489       C  0.68309404  0.70569042  0.87045490     0.21400
C4490       C  0.67748309  0.71565800  0.85855073    -0.38500
C4491       C  0.66183165  0.71317009  0.85385747     0.20400
C4492       C  0.65252525  0.70156233  0.86045917     0.23000
C4493       C  0.65818064  0.69153996  0.87232559    -0.39000
C4494       C  0.67380674  0.69410891  0.87713186     0.21800
N4495       N  0.69799220  0.70453595  0.87562045    -0.32300
C4496       C  0.69828837  0.69205351  0.88552243    -0.09800
C4497       C  0.68335500  0.68540321  0.88703095    -0.28600
N4498       N  0.63838566  0.70099915  0.85331945    -0.45200
C4499       C  0.63870911  0.71229011  0.84206966    -0.04500
C4500       C  0.65312233  0.72017304  0.84207778    -0.21900
H4501       H  0.68493868  0.72433076  0.85296329     0.19900
H4502       H  0.65111009  0.68208681  0.87707696     0.18700
H4503       H  0.68030606  0.67464035  0.89308126     0.15000
H4504       H  0.65690724  0.72938222  0.83416594     0.14900
H4505       H  0.70764792  0.71100705  0.87163011     0.33000
H4506       H  0.62924890  0.69308371  0.85563217     0.35800
C4507       C  0.81212890  0.88395037  0.84365900     0.21400
C4508       C  0.80936633  0.88815338  0.82800404    -0.38500
C4509       C  0.81899055  0.90009652  0.82204310     0.20400
C4510       C  0.83061244  0.90738126  0.83089292     0.23000
C4511       C  0.83341472  0.90313017  0.84664079    -0.39000
C4512       C  0.82371909  0.89113517  0.85264295     0.21800
N4513       N  0.80549475  0.87195943  0.85148424    -0.32300
C4514       C  0.81303592  0.87133632  0.86549759    -0.09800
C4515       C  0.82435539  0.88319926  0.86675615    -0.28600
N4516       N  0.83935880  0.91700119  0.82178744    -0.45200
C4517       C  0.83331979  0.91555434  0.80705596    -0.04500
C4518       C  0.82049732  0.90531163  0.80688936    -0.21900
H4519       H  0.80084827  0.88203222  0.82074149     0.19900
H4520       H  0.84291697  0.90822637  0.85346462     0.18700
H4521       H  0.83255571  0.88515167  0.87633373     0.15000
H4522       H  0.81408622  0.90106803  0.79670886     0.14900
H4523       H  0.79700968  0.86413302  0.84721121     0.33000
H4524       H  0.84961358  0.92299302  0.82507470     0.35800
C4525       C  0.76071822  0.86954547  0.94565911     0.21400
C4526       C  0.74534201  0.87508080  0.94780247    -0.38500
C4527       C  0.74185150  0.88087471  0.96276958     0.20400
C4528       C  0.75281541  0.88133361  0.97483505     0.23000
C4529       C  0.76836240  0.87566954  0.97269145    -0.39000
C4530       C  0.77187306  0.86966700  0.95756864     0.21800
N4531       N  0.76654895  0.86306457  0.93253977    -0.32300
C4532       C  0.78153372  0.85869727  0.93590591    -0.09800
C4533       C  0.78542524  0.86272330  0.95143525    -0.28600
N4534       N  0.74636182  0.88787978  0.98784616    -0.45200
C4535       C  0.73124544  0.89150170  0.98382132    -0.04500
C4536       C  0.72807227  0.88719457  0.96834027    -0.21900
H4537       H  0.73665850  0.87482420  0.93845409     0.19900
H4538       H  0.77701047  0.87584511  0.98206798     0.18700
H4539       H  0.79646155  0.86056474  0.95747798     0.15000
H4540       H  0.71717698  0.88881810  0.96187533     0.14900
H4541       H  0.76048194  0.86133068  0.92196885     0.33000
H4542       H  0.75190341  0.88993969  0.99864084     0.35800
C4543       C  0.77685731  0.76655635  0.88825880     0.21400
C4544       C  0.77405186  0.75329837  0.87871745    -0.38500
C4545       C  0.77053118  0.73929703  0.88676934     0.20400
C4546       C  0.76968082  0.73869127  0.90302677     0.23000
C4547       C  0.77253226  0.75186192  0.91251330    -0.39000
C4548       C  0.77622063  0.76573480  0.90451342     0.21800
N4549       N  0.78124673  0.78104971  0.88365000    -0.32300
C4550       C  0.78359264  0.78934385  0.89711554    -0.09800
C4551       C  0.78051773  0.78019362  0.91032321    -0.28600
N4552       N  0.76575446  0.72422691  0.90788554    -0.45200
C4553       C  0.76417930  0.71543267  0.89468404    -0.04500
C4554       C  0.76712778  0.72437607  0.88123314    -0.21900
H4555       H  0.77473454  0.75380207  0.86601160     0.19900
H4556       H  0.77209520  0.75129904  0.92522816     0.18700
H4557       H  0.78192751  0.78348427  0.92255473     0.15000
H4558       H  0.76625552  0.72063800  0.86908194     0.14900
H4559       H  0.78330872  0.78481450  0.87213733     0.33000
H4560       H  0.76392819  0.72062929  0.91948481     0.35800
C4561       C  0.86768279  0.79725210  0.87390601     0.21400
C4562       C  0.87297595  0.78686911  0.86217330    -0.38500
C4563       C  0.88841862  0.78927250  0.85683242     0.20400
C4564       C  0.89793204  0.80108516  0.86280183     0.23000
C4565       C  0.89264334  0.81146003  0.87461889    -0.39000
C4566       C  0.87711634  0.80910425  0.87992787     0.21800
N4567       N  0.85289411  0.79860044  0.87935180    -0.32300
C4568       C  0.85272560  0.81148459  0.88879111    -0.09800
C4569       C  0.86770916  0.81824609  0.88966681    -0.28600
N4570       N  0.91156500  0.80180854  0.85473490    -0.45200
C4571       C  0.91063480  0.79050826  0.84345423    -0.04500
C4572       C  0.89643015  0.78233641  0.84450372    -0.21900
H4573       H  0.86532624  0.77808418  0.85699022     0.19900
H4574       H  0.89980174  0.82114739  0.87878304     0.18700
H4575       H  0.87089641  0.82919989  0.89534129     0.15000
H4576       H  0.89218500  0.77314725  0.83675679     0.14900
H4577       H  0.84320012  0.79187165  0.87586451     0.33000
H4578       H  0.92062159  0.81000114  0.85630785     0.35800
C4579       C  0.90273543  0.36343983  0.92978709     0.21400
C4580       C  0.90783099  0.35193931  0.91899620    -0.38500
C4581       C  0.92331998  0.34639973  0.92103832     0.20400
C4582       C  0.93290726  0.35188840  0.93304482     0.23000
C4583       C  0.92774651  0.36324871  0.94394577    -0.39000
C4584       C  0.91231978  0.36887089  0.94181181     0.21800
N4585       N  0.88925319  0.37175451  0.92923793    -0.32300
C4586       C  0.89021252  0.38261303  0.94092081    -0.09800
C4587       C  0.90441532  0.38111933  0.94912957    -0.28600
N4588       N  0.94778808  0.34689547  0.93096184    -0.45200
C4589       C  0.94786117  0.33840146  0.91742400    -0.04500
C4590       C  0.93269478  0.33747039  0.91107306    -0.21900
H4591       H  0.90061790  0.34834108  0.90911087     0.19900
H4592       H  0.93554538  0.36811342  0.95279257     0.18700
H4593       H  0.90874212  0.38853877  0.95855166     0.15000
H4594       H  0.92939076  0.33269904  0.89972449     0.14900
H4595       H  0.88021345  0.37057286  0.92092988     0.33000
H4596       H  0.95761737  0.35037205  0.93751880     0.35800
C4597       C  0.79573516  0.38391645  0.97939385     0.21400
C4598       C  0.78151486  0.37524540  0.98026991    -0.38500
C4599       C  0.77661508  0.37080842  0.99553865     0.20400
C4600       C  0.78531670  0.37475130  0.00875089     0.23000
C4601       C  0.79935040  0.38336460  0.00789614    -0.39000
C4602       C  0.80418278  0.38774305  0.99279426     0.21800
N4603       N  0.80326121  0.38931923  0.96642816    -0.32300
C4604       C  0.81657890  0.39653662  0.97176320    -0.09800
C4605       C  0.81743040  0.39576310  0.98812794    -0.28600
N4606       N  0.77865862  0.36897679  0.02180510    -0.45200
C4607       C  0.76550249  0.36122783  0.01715627    -0.04500
C4608       C  0.76372952  0.36211790  0.00077441    -0.21900
H4609       H  0.77486426  0.37206395  0.96986722     0.19900
H4610       H  0.80614785  0.38629779  0.01828418     0.18700
H4611       H  0.82666188  0.40035517  0.99564767     0.15000
H4612       H  0.75450423  0.35690052  0.99367635     0.14900
H4613       H  0.79969769  0.38799449  0.95473063     0.33000
H4614       H  0.78295275  0.37012142  0.03328053     0.35800
C4615       C  0.89759630  0.46455313  0.86313692     0.21400
C4616       C  0.89446257  0.46704539  0.87917281    -0.38500
C4617       C  0.88271828  0.45749281  0.88581853     0.20400
C4618       C  0.87450976  0.44638637  0.87715126     0.23000
C4619       C  0.87766645  0.44388756  0.86106656    -0.39000
C4620       C  0.88956195  0.45334357  0.85444015     0.21800
N4621       N  0.90923680  0.47105153  0.85456883    -0.32300
C4622       C  0.90880954  0.46382173  0.84034230    -0.09800
C4623       C  0.89658022  0.45280280  0.83976233    -0.28600
N4624       N  0.86505175  0.43779332  0.88658982    -0.45200
C4625       C  0.86748632  0.44327767  0.90140746    -0.04500
C4626       C  0.87832307  0.45566098  0.90131243    -0.21900
H4627       H  0.90123280  0.47528468  0.88616366     0.19900
H4628       H  0.87182492  0.43473524  0.85438840     0.18700
H4629       H  0.89378848  0.44484185  0.83020422     0.15000
H4630       H  0.88320690  0.46174714  0.91140011     0.14900
H4631       H  0.91749794  0.47930834  0.85843839     0.33000
H4632       H  0.85830207  0.42803306  0.88332849     0.35800
C4633       C  0.92636063  0.65745149  0.03297903     0.21400
C4634       C  0.91063340  0.65348282  0.03648369    -0.38500
C4635       C  0.90363563  0.64220710  0.02653335     0.20400
C4636       C  0.91171491  0.63547114  0.01405911     0.23000
C4637       C  0.92735516  0.63938881  0.01059744    -0.39000
C4638       C  0.93431857  0.65056001  0.02051126     0.21800
N4639       N  0.93633427  0.66610762  0.04181966    -0.32300
C4640       C  0.95072613  0.66435675  0.03506131    -0.09800
C4641       C  0.94983494  0.65495515  0.02164244    -0.28600
N4642       N  0.90310849  0.62411160  0.00721952    -0.45200
C4643       C  0.88944892  0.62341769  0.01540820    -0.04500
C4644       C  0.88924144  0.63463594  0.02748620    -0.21900
H4645       H  0.90457983  0.65820366  0.04666573     0.19900
H4646       H  0.93391376  0.63351756  0.00136358     0.18700
H4647       H  0.95956214  0.65052149  0.01465577     0.15000
H4648       H  0.88016728  0.63642006  0.03627025     0.14900
H4649       H  0.93386273  0.67139894  0.05265002     0.33000
H4650       H  0.90661766  0.61677334  0.99798416     0.35800
C4651       C  0.79104834  0.63577966  0.94132976     0.21400
C4652       C  0.80632364  0.62996769  0.94362626    -0.38500
C4653       C  0.80941285  0.62369768  0.95850096     0.20400
C4654       C  0.79818634  0.62320023  0.97030789     0.23000
C4655       C  0.78279903  0.62911581  0.96800271    -0.39000
C4656       C  0.77966510  0.63543127  0.95299798     0.21800
N4657       N  0.78533746  0.64225393  0.92815729    -0.32300
C4658       C  0.77017323  0.64617044  0.93128841    -0.09800
C4659       C  0.76611270  0.64208859  0.94669486    -0.28600
N4660       N  0.80417270  0.61624306  0.98327469    -0.45200
C4661       C  0.81926483  0.61232157  0.97954209    -0.04500
C4662       C  0.82291174  0.61685992  0.96423329    -0.21900
H4663       H  0.81515497  0.63022172  0.93443395     0.19900
H4664       H  0.77392773  0.62874098  0.97714516     0.18700
H4665       H  0.75487657  0.64383505  0.95248835     0.15000
H4666       H  0.83392786  0.61512955  0.95801866     0.14900
H4667       H  0.79145890  0.64397806  0.91763606     0.33000
H4668       H  0.79832748  0.61410681  0.99387318     0.35800
C4669       C  0.86191596  0.51777041  0.97765670     0.21400
C4670       C  0.87115718  0.50432084  0.97460358    -0.38500
C4671       C  0.86282202  0.49020836  0.97221773     0.20400
C4672       C  0.84650833  0.48959660  0.97249897     0.23000
C4673       C  0.83727156  0.50299661  0.97562390    -0.39000
C4674       C  0.84561655  0.51703254  0.97832703     0.21800
N4675       N  0.86700105  0.53236696  0.98131237    -0.32300
C4676       C  0.85386542  0.54092366  0.98465833    -0.09800
C4677       C  0.84031785  0.53174034  0.98281502    -0.28600
N4678       N  0.84141334  0.47492205  0.96937583    -0.45200
C4679       C  0.85457194  0.46604673  0.96725633    -0.04500
C4680       C  0.86815709  0.47515870  0.96902928    -0.21900
H4681       H  0.88391790  0.50475762  0.97435131     0.19900
H4682       H  0.82452169  0.50248179  0.97616936     0.18700
H4683       H  0.82824264  0.53517340  0.98517391     0.15000
H4684       H  0.88027164  0.47142955  0.96744378     0.14900
H4685       H  0.87872342  0.53603160  0.98234662     0.33000
H4686       H  0.82969802  0.47124298  0.96837305     0.35800
C4687       C  0.87167990  0.54854069  0.06881785     0.21400
C4688       C  0.88188571  0.53665464  0.07410871    -0.38500
C4689       C  0.88751514  0.53831677  0.08950716     0.20400
C4690       C  0.88314176  0.55084166  0.09898564     0.23000
C4691       C  0.87276317  0.56269153  0.09373881    -0.39000
C4692       C  0.86722195  0.56110462  0.07821633     0.21800
N4693       N  0.86696055  0.55080806  0.05396076    -0.32300
C4694       C  0.85958620  0.56495059  0.05363864    -0.09800
C4695       C  0.85919809  0.57168024  0.06866331    -0.28600
N4696       N  0.89161412  0.55079715  0.11235308    -0.45200
C4697       C  0.90158675  0.53832402  0.11130836    -0.04500
C4698       C  0.89922460  0.53009334  0.09729702    -0.21900
H4699       H  0.88601049  0.52737283  0.06639373     0.19900
H4700       H  0.87007047  0.57292653  0.10085119     0.18700
H4701       H  0.85529744  0.58341193  0.07177990     0.15000
H4702       H  0.90595026  0.52018393  0.09289247     0.14900
H4703       H  0.86982833  0.54376162  0.04428414     0.33000
H4704       H  0.89134110  0.55933512  0.12121524     0.35800
loop_ 
_geom_bond_atom_site_label_1 
_geom_bond_atom_site_label_2 
_geom_bond_distance 
_geom_bond_site_symmetry_2 
_ccdc_geom_bond_type 
O1            C4   1.272       .  A
O1           Cd6   2.523   1_556  S
C2           O11   1.264       .  A
C2            O7   1.270       .  A
C2         C4643   1.474       .  S
O3            C9   1.272   1_554  A
O3           Cd6   2.519       .  S
C4           O12   1.268       .  A
C4         C4676   1.485       .  S
C5           O10   1.273       .  A
C5            O8   1.262       .  A
C5         C4694   1.472       .  S
Cd6          O13   2.419   1_554  S
Cd6          O12   2.462   1_554  S
Cd6          O11   2.467       .  S
Cd6           O7   2.479       .  S
Cd6          O10   2.537       .  S
Cd6           O8   2.387       .  S
C9           O13   1.265       .  A
C9         C4661   1.476       .  S
O14          C17   1.271       .  A
O14         Cd19   2.509       .  S
C15          O24   1.268       .  A
C15          O20   1.272       .  A
C15        C4679   1.477       .  S
O16          C22   1.275       .  A
O16         Cd19   2.545       .  S
C17          O25   1.264       .  A
C17        C4586   1.477       .  S
C18          O23   1.274       .  A
C18          O21   1.266       .  A
C18        C4604   1.488       .  S
Cd19         O26   2.429       .  S
Cd19         O25   2.442       .  S
Cd19         O24   2.453       .  S
Cd19         O20   2.473       .  S
Cd19         O23   2.560       .  S
Cd19         O21   2.438       .  S
C22          O26   1.262       .  A
C22        C4625   1.483       .  S
O27          C30   1.271       .  A
O27         Cd32   2.473       .  S
C28          O37   1.264       .  A
C28          O33   1.270       .  A
C28        C4514   1.467       .  S
O29          C35   1.273       .  A
O29         Cd32   2.533       .  S
C30          O38   1.269       .  A
C30        C4550   1.469       .  S
C31          O36   1.273       .  A
C31          O34   1.261       .  A
C31        C4568   1.474       .  S
Cd32         O39   2.405       .  S
Cd32         O38   2.423       .  S
Cd32         O37   2.423       .  S
Cd32         O33   2.472       .  S
Cd32         O36   2.523       .  S
Cd32         O34   2.408       .  S
C35          O39   1.264       .  A
C35        C4532   1.477       .  S
O40          C43   1.270       .  A
O40         Cd45   2.473       .  S
C41          O50   1.267       .  A
C41          O46   1.271       .  A
C41        C4553   1.469       .  S
O42          C48   1.274       .  A
O42         Cd45   2.502       .  S
C43          O51   1.265       .  A
C43        C4478   1.470       .  S
C44          O49   1.273       .  A
C44          O47   1.265       .  A
C44        C4658   1.472       .  S
Cd45         O52   2.374       .  S
Cd45         O51   2.438       .  S
Cd45         O50   2.423       .  S
Cd45         O46   2.471       .  S
Cd45         O49   2.504       .  S
Cd45         O47   2.399       .  S
C48          O52   1.261       .  A
C48        C4496   1.464       .  S
O53          C56   1.269       .  A
O53         Cd58   2.474       .  S
C54          O63   1.267       .  A
C54          O59   1.271       .  A
C54        C4442   1.466       .  S
O55          C61   1.273       .  A
O55         Cd58   2.500       .  S
C56          O64   1.265       .  A
C56        C4427   1.471       .  S
C57          O62   1.272   1_556  A
C57          O60   1.265       .  A
C57        C4535   1.476       .  S
Cd58         O65   2.407       .  S
Cd58         O64   2.446       .  S
Cd58         O63   2.419   1_554  S
Cd58         O59   2.465   1_554  S
Cd58         O62   2.526       .  S
Cd58         O60   2.405   1_554  S
C61          O65   1.261       .  A
C61        C4460   1.469       .  S
O66          C69   1.270       .  A
O66         Cd71   2.440       .  S
C67          O76   1.264       .  A
C67          O72   1.270       .  A
C67        C4370   1.465       .  S
O68          C74   1.273       .  A
O68         Cd71   2.494       .  S
C69          O77   1.268       .  A
C69        C4445   1.462       .  S
C70          O75   1.274       .  A
C70          O73   1.262       .  A
C70        C4406   1.469       .  S
Cd71         O78   2.420       .  S
Cd71         O77   2.426       .  S
Cd71         O76   2.412       .  S
Cd71         O72   2.463       .  S
Cd71         O75   2.518       .  S
Cd71         O73   2.376       .  S
C74          O78   1.266       .  A
C74        C4388   1.474       .  S
O79          C82   1.270       .  A
O79         Cd84   2.497       .  S
C80          O89   1.268       .  A
C80          O85   1.270       .  A
C80        C4337   1.472       .  S
O81          C87   1.275       .  A
O81         Cd84   2.530       .  S
C82          O90   1.266       .  A
C82        C4316   1.477       .  S
C83          O88   1.275       .  A
C83          O86   1.265       .  A
C83        C4391   1.478       .  S
Cd84         O91   2.410       .  S
Cd84         O90   2.449       .  S
Cd84         O89   2.442       .  S
Cd84         O85   2.475       .  S
Cd84         O88   2.535       .  S
Cd84         O86   2.399       .  S
C87          O91   1.262       .  A
C87        C4355   1.475       .  S
O92          C95   1.271       .  A
O92         Cd97   2.475       .  S
C93         O102   1.268       .  A
C93          O98   1.271       .  A
C93        C4334   1.473       .  S
O94         C100   1.274       .  A
O94         Cd97   2.540       .  S
C95         O103   1.266       .  A
C95        C4283   1.475       .  S
C96         O101   1.274       .  A
C96          O99   1.265       .  A
C96        C4607   1.481       .  S
Cd97        O104   2.379       .  S
Cd97        O103   2.456       .  S
Cd97        O102   2.445       .  S
Cd97         O98   2.480       .  S
Cd97        O101   2.538       .  S
Cd97         O99   2.402       .  S
C100        O104   1.260       .  A
C100       C4298   1.472       .  S
O105        C108   1.270       .  A
O105       Cd110   2.490       .  S
C106        O115   1.263       .  A
C106        O111   1.270       .  A
C106       C4211   1.469       .  S
O107        C113   1.272       .  A
O107       Cd110   2.511       .  S
C108        O116   1.267       .  A
C108       C4244   1.477       .  S
C109        O114   1.272       .  A
C109        O112   1.262       .  A
C109       C4262   1.476       .  S
Cd110       O117   2.411       .  S
Cd110       O116   2.459       .  S
Cd110       O115   2.431       .  S
Cd110       O111   2.487       .  S
Cd110       O114   2.538       .  S
Cd110       O112   2.404       .  S
C113        O117   1.265       .  A
C113       C4226   1.473       .  S
O118        C121   1.273       .  A
O118       Cd123   2.489       .  S
C119        O128   1.264       .  A
C119        O124   1.272       .  A
C119       C4172   1.477       .  S
O120        C126   1.272       .  A
O120       Cd123   2.515       .  S
C121        O129   1.268       .  A
C121       C4247   1.478       .  S
C122        O127   1.273       .  A
C122        O125   1.261       .  A
C122       C4280   1.475       .  S
Cd123       O130   2.420       .  S
Cd123       O129   2.446       .  S
Cd123       O128   2.436       .  S
Cd123       O124   2.518       .  S
Cd123       O127   2.537       .  S
Cd123       O125   2.400       .  S
C126        O130   1.266       .  A
C126       C4190   1.475       .  S
O131        C134   1.269       .  A
O131       Cd136   2.495       .  S
C132        O141   1.267       .  A
C132        O137   1.270       .  A
C132       C4136   1.466       .  S
O133        C139   1.272       .  A
O133       Cd136   2.515       .  S
C134        O142   1.265       .  A
C134       C4118   1.473       .  S
C135        O140   1.272       .  A
C135        O138   1.265       .  A
C135       C4193   1.472       .  S
Cd136       O143   2.390       .  S
Cd136       O142   2.443       .  S
Cd136       O141   2.418       .  S
Cd136       O137   2.461       .  S
Cd136       O140   2.520       .  S
Cd136       O138   2.386       .  S
C139        O143   1.260       .  A
C139       C4154   1.468       .  S
O144        C147   1.270       .  A
O144       Cd149   2.474       .  S
C145        O154   1.268       .  A
C145        O150   1.271       .  A
C145       C4139   1.469       .  S
O146        C152   1.274       .  A
O146       Cd149   2.539       .  S
C147        O155   1.265       .  A
C147       C4067   1.470       .  S
C148        O153   1.273       .  A
C148        O151   1.265       .  A
C148       C4082   1.481       .  S
Cd149       O156   2.395       .  S
Cd149       O155   2.438       .  S
Cd149       O154   2.429       .  S
Cd149       O150   2.472       .  S
Cd149       O153   2.536       .  S
Cd149       O151   2.426       .  S
C152        O156   1.261       .  A
C152       C4100   1.475       .  S
O157        C160   1.270       .  A
O157       Cd162   2.507       .  S
C158        O167   1.267       .  A
C158        O163   1.271       .  A
C158       C4028   1.472       .  S
O159        C165   1.273       .  A
O159       Cd162   2.528       .  S
C160        O168   1.263       .  A
C160       C4697   1.475       .  S
C161        O166   1.272       .  A
C161        O164   1.265       .  A
C161       C4229   1.473       .  S
Cd162       O169   2.395       .  S
Cd162       O168   2.434       .  S
Cd162       O167   2.437       .  S
Cd162       O163   2.482       .  S
Cd162       O166   2.521       .  S
Cd162       O164   2.396       .  S
C165        O169   1.261       .  A
C165       C4049   1.472       .  S
O170        C173   1.271       .  A
O170       Cd175   2.480       .  S
C171        O180   1.264       .  A
C171        O176   1.268       .  A
C171       C3974   1.473       .  S
O172        C178   1.271       .  A
O172       Cd175   2.524       .  S
C173        O181   1.266       .  A
C173       C4031   1.469       .  S
C174        O179   1.272       .  A
C174        O177   1.260       .  A
C174       C4013   1.473       .  S
Cd175       O182   2.403       .  S
Cd175       O181   2.420       .  S
Cd175       O180   2.458       .  S
Cd175       O176   2.484       .  S
Cd175       O179   2.527       .  S
Cd175       O177   2.407       .  S
C178        O182   1.265       .  A
C178       C3992   1.473       .  S
O183        C186   1.270       .  A
O183       Cd188   2.471       .  S
C184        O193   1.268       .  A
C184        O189   1.272       .  A
C184       C3938   1.468       .  S
O185        C191   1.273       .  A
O185       Cd188   2.516       .  S
C186        O194   1.264       .  A
C186       C3920   1.469       .  S
C187        O192   1.272       .  A
C187        O190   1.265       .  A
C187       C4085   1.477       .  S
Cd188       O195   2.407       .  S
Cd188       O194   2.439       .  S
Cd188       O193   2.416       .  S
Cd188       O189   2.470       .  S
Cd188       O192   2.509       .  S
Cd188       O190   2.424       .  S
C191        O195   1.262       .  A
C191       C3956   1.471       .  S
O196        C199   1.269       .  A
O196       Cd201   2.477       .  S
C197        O206   1.264       .  A
C197        O202   1.268       .  A
C197       C3887   1.475       .  S
O198        C204   1.270       .  A
O198       Cd201   2.521       .  S
C199        O207   1.267       .  A
C199       C3941   1.471       .  S
C200        O205   1.270       .  A
C200        O203   1.258       .  A
C200       C3902   1.465       .  S
Cd201       O208   2.384       .  S
Cd201       O207   2.444       .  S
Cd201       O206   2.457       .  S
Cd201       O202   2.494       .  S
Cd201       O205   2.529       .  S
Cd201       O203   2.363       .  S
C204        O208   1.263       .  A
C204       C3995   1.469       .  S
O209        C212   1.269       .  A
O209       Cd214   2.509       .  S
C210        O219   1.268       .  A
C210        O215   1.271       .  A
C210       C3848   1.475       .  S
O211        C217   1.271       .  A
O211       Cd214   2.529       .  S
C212        O220   1.263       .  A
C212       C3812   1.478       .  S
C213        O218   1.272       .  A
C213        O216   1.264       .  A
C213       C3830   1.473       .  S
Cd214       O221   2.388       .  S
Cd214       O220   2.462       .  S
Cd214       O219   2.454       .  S
Cd214       O215   2.481       .  S
Cd214       O218   2.536       .  S
Cd214       O216   2.382       .  S
C217        O221   1.260       .  A
C217       C3866   1.470       .  S
O222        C225   1.272   1_455  A
O222       Cd227   2.498   1_455  S
C223        O232   1.268       .  A
C223        O228   1.273       .  A
C223       C3851   1.477       .  S
O224        C230   1.276       .  A
O224       Cd227   2.534       .  S
C225        O233   1.266       .  A
C225       C3758   1.477       .  S
C226        O231   1.274   1_455  A
C226        O229   1.267       .  A
C226       C3776   1.480       .  S
Cd227       O234   2.390       .  S
Cd227       O233   2.440       .  S
Cd227       O232   2.449   1_655  S
Cd227       O228   2.477   1_655  S
Cd227       O231   2.517       .  S
Cd227       O229   2.434   1_655  S
C230        O234   1.263       .  A
C230       C3794   1.476       .  S
O235        C238   1.272       .  A
O235       Cd240   2.500       .  S
C236        O245   1.264       .  A
C236        O241   1.270       .  A
C236       C4571   1.476       .  S
O237        C243   1.272       .  A
O237       Cd240   2.525       .  S
C238        O246   1.268       .  A
C238       C3722   1.479       .  S
C239        O244   1.273       .  A
C239        O242   1.261       .  A
C239       C3740   1.472       .  S
Cd240       O247   2.406       .  S
Cd240       O246   2.445       .  S
Cd240       O245   2.462       .  S
Cd240       O241   2.487       .  S
Cd240       O244   2.529       .  S
Cd240       O242   2.396       .  S
C243        O247   1.264       .  A
C243       C3704   1.474       .  S
O248        C251   1.269       .  A
O248       Cd253   2.475       .  S
C249        O258   1.267       .  A
C249        O254   1.270       .  A
C249       C3725   1.477       .  S
O250        C256   1.272       .  A
O250       Cd253   2.505       .  S
C251        O259   1.265       .  A
C251       C3671   1.475       .  S
C252        O257   1.271       .  A
C252        O255   1.265       .  A
C252       C3833   1.471       .  S
Cd253       O260   2.387       .  S
Cd253       O259   2.469       .  S
Cd253       O258   2.460       .  S
Cd253       O254   2.483       .  S
Cd253       O257   2.509       .  S
Cd253       O255   2.399       .  S
C256        O260   1.261       .  A
C256       C3686   1.464       .  S
O261        C264   1.271       .  A
O261       Cd266   2.479       .  S
C262        O271   1.268       .  A
C262        O267   1.273       .  A
C262       C3635   1.469       .  S
O263        C269   1.273       .  A
O263       Cd266   2.526       .  S
C264        O272   1.265       .  A
C264       C3614   1.470       .  S
C265        O270   1.272       .  A
C265        O268   1.265       .  A
C265       C3707   1.469       .  S
Cd266       O273   2.393       .  S
Cd266       O272   2.429       .  S
Cd266       O271   2.415       .  S
Cd266       O267   2.469       .  S
Cd266       O270   2.485       .  S
Cd266       O268   2.410       .  S
C269        O273   1.261       .  A
C269       C3650   1.472       .  S
O274        C277   1.270   1_455  A
O274       Cd279   2.469   1_455  S
C275        O284   1.267       .  A
C275        O280   1.271       .  A
C275       C3632   1.474       .  S
O276        C282   1.274       .  A
O276       Cd279   2.514       .  S
C277        O285   1.265       .  A
C277       C4046   1.475       .  S
C278        O283   1.272   1_455  A
C278        O281   1.266       .  A
C278       C3596   1.473       .  S
Cd279       O286   2.375       .  S
Cd279       O285   2.472       .  S
Cd279       O284   2.441   1_655  S
Cd279       O280   2.490   1_655  S
Cd279       O283   2.495       .  S
Cd279       O281   2.420   1_655  S
C282        O286   1.262       .  A
C282       C4640   1.467       .  S
O287        C290   1.271       .  A
O287       Cd292   2.442       .  S
C288        O297   1.265       .  A
C288        O293   1.270       .  A
C288       C3545   1.467       .  S
O289        C295   1.274       .  A
O289       Cd292   2.493       .  S
C290        O298   1.267       .  A
C290       C3563   1.462       .  S
C291        O296   1.274       .  A
C291        O294   1.261       .  A
C291       C3578   1.465       .  S
Cd292       O299   2.391       .  S
Cd292       O298   2.415       .  S
Cd292       O297   2.427       .  S
Cd292       O293   2.464       .  S
Cd292       O296   2.507       .  S
Cd292       O294   2.373       .  S
C295        O299   1.265       .  A
C295       C3599   1.469       .  S
O300        C303   1.270       .  A
O300       Cd305   2.468       .  S
C301        O310   1.266       .  A
C301        O306   1.271       .  A
C301       C3560   1.463       .  S
O302        C308   1.273       .  A
O302       Cd305   2.524       .  S
C303        O311   1.266       .  A
C303       C3524   1.468       .  S
C304        O309   1.272       .  A
C304        O307   1.265       .  A
C304       C3779   1.475       .  S
Cd305       O312   2.396       .  S
Cd305       O311   2.428       .  S
Cd305       O310   2.391       .  S
Cd305       O306   2.472       .  S
Cd305       O309   2.514       .  S
Cd305       O307   2.408       .  S
C308        O312   1.261       .  A
C308       C3884   1.473       .  S
O313        C316   1.271       .  A
O313       Cd318   2.459       .  S
C314        O323   1.268       .  A
C314        O319   1.272       .  A
C314       C3488   1.463       .  S
O315        C321   1.274       .  A
O315       Cd318   2.496       .  S
C316        O324   1.265       .  A
C316       C3455   1.464       .  S
C317        O322   1.274       .  A
C317        O320   1.266       .  A
C317       C3470   1.471       .  S
Cd318       O325   2.396       .  S
Cd318       O324   2.410       .  S
Cd318       O323   2.405       .  S
Cd318       O319   2.446       .  S
Cd318       O322   2.496       .  S
Cd318       O320   2.396       .  S
C321        O325   1.263       .  A
C321       C3506   1.468       .  S
O326        C329   1.270       .  A
O326       Cd331   2.470       .  S
C327        O336   1.268       .  A
C327        O332   1.270       .  A
C327       C3491   1.471       .  S
O328        C334   1.274       .  A
O328       Cd331   2.512       .  S
C329        O337   1.265       .  A
C329       C3416   1.470       .  S
C330        O335   1.273       .  A
C330        O333   1.265       .  A
C330       C3437   1.477       .  S
Cd331       O338   2.379       .  S
Cd331       O337   2.440       .  S
Cd331       O336   2.458       .  S
Cd331       O332   2.459       .  S
Cd331       O335   2.516       .  S
Cd331       O333   2.415       .  S
C334        O338   1.262       .  A
C334       C4064   1.467       .  S
O339        C342   1.271       .  A
O339       Cd344   2.451       .  S
C340        O349   1.267       .  A
C340        O345   1.272       .  A
C340       C3380   1.469       .  S
O341        C347   1.275       .  A
O341       Cd344   2.517       .  S
C342        O350   1.265       .  A
C342       C3869   1.467       .  S
C343        O348   1.273       .  A
C343        O346   1.267       .  A
C343       C3362   1.482       .  S
Cd344       O351   2.386       .  S
Cd344       O350   2.433       .  S
Cd344       O349   2.407       .  S
Cd344       O345   2.491       .  S
Cd344       O348   2.522       .  S
Cd344       O346   2.431       .  S
C347        O351   1.261       .  A
C347       C3401   1.469       .  S
O352        C355   1.269       .  A
O352       Cd357   2.474       .  S
C353        O362   1.268       .  A
C353        O358   1.270       .  A
C353       C3383   1.462       .  S
O354        C360   1.274       .  A
O354       Cd357   2.519       .  S
C355        O363   1.266       .  A
C355       C3308   1.468       .  S
C356        O361   1.273       .  A
C356        O359   1.265       .  A
C356       C3326   1.475       .  S
Cd357       O364   2.379       .  S
Cd357       O363   2.422       .  S
Cd357       O362   2.417       .  S
Cd357       O358   2.437       .  S
Cd357       O361   2.526       .  S
Cd357       O359   2.382       .  S
C360        O364   1.261       .  A
C360       C3347   1.470       .  S
O365        C368   1.270       .  A
O365       Cd370   2.482       .  S
C366        O375   1.266       .  A
C366        O371   1.269       .  A
C366       C3272   1.472       .  S
O367        C373   1.274       .  A
O367       Cd370   2.531       .  S
C368        O376   1.266       .  A
C368       C3254   1.473       .  S
C369        O374   1.272       .  A
C369        O372   1.266       .  A
C369       C3365   1.483       .  S
Cd370       O377   2.378       .  S
Cd370       O376   2.442       .  S
Cd370       O375   2.437       .  S
Cd370       O371   2.496       .  S
Cd370       O374   2.533       .  S
Cd370       O372   2.437       .  S
C373        O377   1.261       .  A
C373       C3293   1.470       .  S
O378        C381   1.272       .  A
O378       Cd383   2.471       .  S
C379        O388   1.265       .  A
C379        O384   1.270       .  A
C379       C3905   1.466       .  S
O380        C386   1.273       .  A
O380       Cd383   2.514       .  S
C381        O389   1.266       .  A
C381       C3275   1.465       .  S
C382        O387   1.273       .  A
C382        O385   1.261       .  A
C382       C3527   1.469       .  S
Cd383       O390   2.403       .  S
Cd383       O389   2.396       .  S
Cd383       O388   2.424       .  S
Cd383       O384   2.468       .  S
Cd383       O387   2.509       .  S
Cd383       O385   2.398       .  S
C386        O390   1.265       .  A
C386       C3473   1.474       .  S
O391        C394   1.268       .  A
O391       Cd396   2.481       .  S
C392        O401   1.265       .  A
C392        O397   1.270       .  A
C392       C3218   1.470       .  S
O393        C399   1.272       .  A
O393       Cd396   2.539       .  S
C394        O402   1.265       .  A
C394       C3200   1.474       .  S
C395        O400   1.271       .  A
C395        O398   1.265       .  A
C395       C3329   1.480       .  S
Cd396       O403   2.408       .  S
Cd396       O402   2.463       .  S
Cd396       O401   2.411       .  S
Cd396       O397   2.498       .  S
Cd396       O400   2.539       .  S
Cd396       O398   2.429       .  S
C399        O403   1.261       .  A
C399       C3236   1.474       .  S
O404        C407   1.268       .  A
O404       Cd409   2.482       .  S
C405        O414   1.268       .  A
C405        O410   1.270       .  A
C405       C3221   1.466       .  S
O406        C412   1.271       .  A
O406       Cd409   2.535       .  S
C407        O415   1.264       .  A
C407       C3164   1.470       .  S
C408        O413   1.271       .  A
C408        O411   1.265       .  A
C408       C3434   1.483       .  S
Cd409       O416   2.429       .  S
Cd409       O415   2.447       .  S
Cd409       O414   2.428       .  S
Cd409       O410   2.463       .  S
Cd409       O413   2.536       .  S
Cd409       O411   2.448       .  S
C412        O416   1.259       .  A
C412       C3182   1.478       .  S
O417        C420   1.268       .  A
O417       Cd422   2.459       .  S
C418        O427   1.267       .  A
C418        O423   1.270       .  A
C418       C3146   1.467       .  S
O419        C425   1.272       .  A
O419       Cd422   2.512       .  S
C420        O428   1.264       .  A
C420       C3110   1.463       .  S
C421        O426   1.272       .  A
C421        O424   1.263       .  A
C421       C3128   1.473       .  S
Cd422       O429   2.389       .  S
Cd422       O428   2.423       .  S
Cd422       O427   2.419       .  S
Cd422       O423   2.474       .  S
Cd422       O426   2.518       .  S
Cd422       O424   2.396       .  S
C425        O429   1.262       .  A
C425       C3452   1.467       .  S
O430        C433   1.271       .  A
O430       Cd435   2.480       .  S
C431        O440   1.264       .  A
C431        O436   1.269       .  A
C431       C4157   1.468       .  S
O432        C438   1.270       .  A
O432       Cd435   2.492       .  S
C433        O441   1.267       .  A
C433       C3149   1.468       .  S
C434        O439   1.271       .  A
C434        O437   1.261       .  A
C434       C3092   1.467       .  S
Cd435       O442   2.419       .  S
Cd435       O441   2.416       .  S
Cd435       O440   2.435       .  S
Cd435       O436   2.471       .  S
Cd435       O439   2.520       .  S
Cd435       O437   2.382       .  S
C438        O442   1.265       .  A
C438       C3074   1.470       .  S
O443        C446   1.269       .  A
O443       Cd448   2.475       .  S
C444        O453   1.267       .  A
C444        O449   1.271       .  A
C444       C3038   1.470       .  S
O445        C451   1.271       .  A
O445       Cd448   2.519       .  S
C446        O454   1.265       .  A
C446       C4499   1.472       .  S
C447        O452   1.272       .  A
C447        O450   1.264       .  A
C447       C3020   1.475       .  S
Cd448       O455   2.391       .  S
Cd448       O454   2.459       .  S
Cd448       O453   2.421       .  S
Cd448       O449   2.487       .  S
Cd448       O452   2.529       .  S
Cd448       O450   2.405       .  S
C451        O455   1.259       .  A
C451       C3056   1.467       .  S
O456        C459   1.269       .  A
O456       Cd461   2.447       .  S
C457        O466   1.269       .  A
C457        O462   1.271       .  A
C457       C3041   1.465       .  S
O458        C464   1.274       .  A
O458       Cd461   2.526       .  S
C459        O467   1.265       .  A
C459       C2984   1.464       .  S
C460        O465   1.273       .  A
C460        O463   1.265       .  A
C460       C3131   1.475       .  S
Cd461       O468   2.388       .  S
Cd461       O467   2.426       .  S
Cd461       O466   2.413       .  S
Cd461       O462   2.451       .  S
Cd461       O465   2.511       .  S
Cd461       O463   2.412       .  S
C464        O468   1.260       .  A
C464       C3002   1.472       .  S
O469        C472   1.271       .  A
O469       Cd474   2.459       .  S
C470        O479   1.267       .  A
C470        O475   1.270       .  A
C470       C2948   1.470       .  S
O471        C477   1.274       .  A
O471       Cd474   2.496       .  S
C472        O480   1.265       .  A
C472       C3290   1.468       .  S
C473        O478   1.273       .  A
C473        O476   1.265       .  A
C473       C3077   1.469       .  S
Cd474       O481   2.379       .  S
Cd474       O480   2.435       .  S
Cd474       O479   2.438       .  S
Cd474       O475   2.479       .  S
Cd474       O478   2.512       .  S
Cd474       O476   2.372       .  S
C477        O481   1.262       .  A
C477       C2966   1.464       .  S
O482        C485   1.271       .  A
O482       Cd487   2.458       .  S
C483        O492   1.265       .  A
C483        O488   1.269       .  A
C483       C2915   1.468       .  S
O484        C490   1.272       .  A
O484       Cd487   2.498       .  S
C485        O493   1.266       .  A
C485       C2951   1.463       .  S
C486        O491   1.273       .  A
C486        O489   1.262       .  A
C486       C3923   1.469       .  S
Cd487       O494   2.408       .  S
Cd487       O493   2.407       .  S
Cd487       O492   2.433       .  S
Cd487       O488   2.468       .  S
Cd487       O491   2.513       .  S
Cd487       O489   2.401       .  S
C490        O494   1.265       .  A
C490       C2930   1.471       .  S
O495        C498   1.269       .  A
O495       Cd500   2.490       .  S
C496        O505   1.267       .  A
C496        O501   1.271       .  A
C496       C2876   1.475       .  S
O497        C503   1.273       .  A
O497       Cd500   2.524       .  S
C498        O506   1.265       .  A
C498       C2858   1.478       .  S
C499        O504   1.273       .  A
C499        O502   1.266       .  A
C499       C3023   1.476       .  S
Cd500       O507   2.360       .  S
Cd500       O506   2.473       .  S
Cd500       O505   2.431       .  S
Cd500       O501   2.499       .  S
Cd500       O504   2.528       .  S
Cd500       O502   2.394       .  S
C503        O507   1.260       .  A
C503       C2897   1.467       .  S
O508        C511   1.271       .  A
O508       Cd513   2.484       .  S
C509        O518   1.264       .  A
C509        O514   1.271       .  A
C509       C2840   1.478       .  S
O510        C516   1.271       .  A
O510       Cd513   2.514       .  S
C511        O519   1.267       .  A
C511       C2879   1.473       .  S
C512        O517   1.273       .  A
C512        O515   1.262       .  A
C512       C4424   1.469       .  S
Cd513       O520   2.417       .  S
Cd513       O519   2.440       .  S
Cd513       O518   2.436       .  S
Cd513       O514   2.510       .  S
Cd513       O517   2.517       .  S
Cd513       O515   2.380       .  S
C516        O520   1.265       .  A
C516       C2933   1.474       .  S
O521        C524   1.270       .  A
O521       Cd526   2.476       .  S
C522        O531   1.267       .  A
C522        O527   1.273       .  A
C522       C2825   1.471       .  S
O523        C529   1.275       .  A
O523       Cd526   2.523       .  S
C524        O532   1.266       .  A
C524       C2789   1.472       .  S
C525        O530   1.272       .  A
C525        O528   1.266       .  A
C525       C2804   1.478       .  S
Cd526       O533   2.376       .  S
Cd526       O532   2.449       .  S
Cd526       O531   2.416       .  S
Cd526       O527   2.487       .  S
Cd526       O530   2.511       .  S
Cd526       O528   2.436       .  S
C529        O533   1.262       .  A
C529       C3542   1.469       .  S
O534        C537   1.269       .  A
O534       Cd539   2.493       .  S
C535        O544   1.267       .  A
C535        O540   1.270       .  A
C535       C2822   1.470       .  S
O536        C542   1.271       .  A
O536       Cd539   2.512       .  S
C537        O545   1.264       .  A
C537       C3959   1.475       .  S
C538        O543   1.271       .  A
C538        O541   1.265       .  A
C538       C2768   1.476       .  S
Cd539       O546   2.391       .  S
Cd539       O545   2.458       .  S
Cd539       O544   2.436       .  S
Cd539       O540   2.482       .  S
Cd539       O543   2.532       .  S
Cd539       O541   2.406       .  S
C542        O546   1.260       .  A
C542       C2912   1.467       .  S
O547        C550   1.272       .  A
O547       Cd552   2.461       .  S
C548        O557   1.265       .  A
C548        O553   1.270       .  A
C548       C2894   1.474       .  S
O549        C555   1.273       .  A
O549       Cd552   2.505       .  S
C550        O558   1.268       .  A
C550       C2732   1.469       .  S
C551        O556   1.272       .  A
C551        O554   1.262       .  A
C551       C2750   1.477       .  S
Cd552       O559   2.397       .  S
Cd552       O558   2.433       .  S
Cd552       O557   2.451       .  S
Cd552       O553   2.497       .  S
Cd552       O556   2.537       .  S
Cd552       O554   2.416       .  S
C555        O559   1.264       .  A
C555       C2807   1.471       .  S
O560        C563   1.270       .  A
O560       Cd565   2.499       .  S
C561        O570   1.266       .  A
C561        O566   1.271       .  A
C561       C2735   1.470       .  S
O562        C568   1.272       .  A
O562       Cd565   2.521       .  S
C563        O571   1.265       .  A
C563       C2678   1.479       .  S
C564        O569   1.272   1_556  A
C564        O567   1.265       .  A
C564       C2696   1.473       .  S
Cd565       O572   2.393       .  S
Cd565       O571   2.459       .  S
Cd565       O570   2.448   1_554  S
Cd565       O566   2.471   1_554  S
Cd565       O569   2.504       .  S
Cd565       O567   2.410   1_554  S
C568        O572   1.261       .  A
C568       C2714   1.468       .  S
O573        C576   1.269       .  A
O573       Cd578   2.504       .  S
C574        O583   1.267       .  A
C574        O579   1.269       .  A
C574       C2642   1.469       .  S
O575        C581   1.267       .  A
O575       Cd578   2.510       .  S
C576        O584   1.264       .  A
C576       C2624   1.475       .  S
C577        O582   1.269       .  A
C577        O580   1.263       .  A
C577       C2699   1.476       .  S
Cd578       O585   2.455       .  S
Cd578       O584   2.447       .  S
Cd578       O583   2.447       .  S
Cd578       O579   2.463       .  S
Cd578       O582   2.528       .  S
Cd578       O580   2.435       .  S
C581        O585   1.260       .  A
C581       C2660   1.475       .  S
O586        C589   1.272       .  A
O586       Cd591   2.488       .  S
C587        O596   1.268       .  A
C587        O592   1.271       .  A
C587       C2645   1.471       .  S
O588        C594   1.275       .  A
O588       Cd591   2.501       .  S
C589        O597   1.266       .  A
C589       C2570   1.471       .  S
C590        O595   1.274       .  A
C590        O593   1.266       .  A
C590       C2591   1.482       .  S
Cd591       O598   2.391       .  S
Cd591       O597   2.413       .  S
Cd591       O596   2.424       .  S
Cd591       O592   2.479       .  S
Cd591       O595   2.550       .  S
Cd591       O593   2.403       .  S
C594        O598   1.263       .  A
C594       C2606   1.469       .  S
O599        C602   1.269       .  A
O599       Cd604   2.484       .  S
C600        O609   1.268       .  A
C600        O605   1.271       .  A
C600       C2534   1.472       .  S
O601        C607   1.273       .  A
O601       Cd604   2.521       .  S
C602        O610   1.264       .  A
C602       C3653   1.473       .  S
C603        O608   1.272       .  A
C603        O606   1.265       .  A
C603       C2771   1.472       .  S
Cd604       O611   2.397       .  S
Cd604       O610   2.455       .  S
Cd604       O609   2.445       .  S
Cd604       O605   2.470       .  S
Cd604       O608   2.511       .  S
Cd604       O606   2.404       .  S
C607        O611   1.261       .  A
C607       C2552   1.471       .  S
O612        C615   1.270       .  A
O612       Cd617   2.456       .  S
C613        O622   1.267       .  A
C613        O618   1.272       .  A
C613       C2537   1.475       .  S
O614        C620   1.274       .  A
O614       Cd617   2.509       .  S
C615        O623   1.265       .  A
C615       C2516   1.469       .  S
C616        O621   1.272   1_556  A
C616        O619   1.267       .  A
C616       C2588   1.479       .  S
Cd617       O624   2.380       .  S
Cd617       O623   2.450       .  S
Cd617       O622   2.428   1_554  S
Cd617       O618   2.500   1_554  S
Cd617       O621   2.527       .  S
Cd617       O619   2.406   1_554  S
C620        O624   1.262       .  A
C620       C3977   1.467       .  S
O625        C628   1.271       .  A
O625       Cd630   2.469       .  S
C626        O635   1.269       .  A
C626        O631   1.271       .  A
C626       C2480   1.477       .  S
O627        C633   1.274       .  A
O627       Cd630   2.517       .  S
C628        O636   1.265       .  A
C628       C2447   1.468       .  S
C629        O634   1.274       .  A
C629        O632   1.266       .  A
C629       C2465   1.475       .  S
Cd630       O637   2.392       .  S
Cd630       O636   2.433       .  S
Cd630       O635   2.454       .  S
Cd630       O631   2.483       .  S
Cd630       O634   2.519       .  S
Cd630       O632   2.394       .  S
C633        O637   1.261       .  A
C633       C2501   1.470       .  S
O638        C641   1.271       .  A
O638       Cd643   2.471       .  S
C639        O648   1.267       .  A
C639        O644   1.272       .  A
C639       C2483   1.471       .  S
O640        C646   1.273       .  A
O640       Cd643   2.519       .  S
C641        O649   1.265       .  A
C641       C3398   1.472       .  S
C642        O647   1.273       .  A
C642        O645   1.265       .  A
C642       C2429   1.476       .  S
Cd643       O650   2.405       .  S
Cd643       O649   2.449       .  S
Cd643       O648   2.432       .  S
Cd643       O644   2.473       .  S
Cd643       O647   2.524       .  S
Cd643       O645   2.406       .  S
C646        O650   1.262       .  A
C646       C3815   1.473       .  S
O651        C654   1.270       .  A
O651       Cd656   2.486       .  S
C652        O661   1.268       .  A
C652        O657   1.271       .  A
C652       C2408   1.471       .  S
O653        C659   1.274       .  A
O653       Cd656   2.535       .  S
C654        O662   1.266       .  A
C654       C3743   1.476       .  S
C655        O660   1.273       .  A
C655        O658   1.264       .  A
C655       C2462   1.476       .  S
Cd656       O663   2.380       .  S
Cd656       O662   2.458       .  S
Cd656       O661   2.442       .  S
Cd656       O657   2.461       .  S
Cd656       O660   2.519       .  S
Cd656       O658   2.411       .  S
C659        O663   1.262       .  A
C659       C4517   1.473       .  S
O664        C667   1.268       .  A
O664       Cd669   2.483       .  S
C665        O674   1.266       .  A
C665        O670   1.272       .  A
C665       C2411   1.471       .  S
O666        C672   1.270       .  A
O666       Cd669   2.529       .  S
C667        O675   1.264       .  A
C667       C3005   1.476       .  S
C668        O673   1.271       .  A
C668        O671   1.265       .  A
C668       C2372   1.480       .  S
Cd669       O676   2.448       .  S
Cd669       O675   2.484       .  S
Cd669       O674   2.422       .  S
Cd669       O670   2.500       .  S
Cd669       O673   2.533       .  S
Cd669       O671   2.434       .  S
C672        O676   1.261       .  A
C672       C2390   1.478       .  S
O677        C680   1.269       .  A
O677       Cd682   2.480       .  S
C678        O687   1.267       .  A
C678        O683   1.271       .  A
C678       C2336   1.473       .  S
O679        C685   1.272       .  A
O679       Cd682   2.528       .  S
C680        O688   1.264       .  A
C680       C4409   1.471       .  S
C681        O686   1.272       .  A
C681        O684   1.265       .  A
C681       C2375   1.478       .  S
Cd682       O689   2.407       .  S
Cd682       O688   2.453       .  S
Cd682       O687   2.457       .  S
Cd682       O683   2.464       .  S
Cd682       O686   2.517       .  S
Cd682       O684   2.425       .  S
C685        O689   1.261       .  A
C685       C2354   1.474       .  S
O690        C693   1.272       .  A
O690       Cd695   2.496       .  S
C691        O700   1.267       .  A
C691        O696   1.273       .  A
C691       C2339   1.477       .  S
O692        C698   1.274       .  A
O692       Cd695   2.518       .  S
C693        O701   1.266       .  A
C693       C2753   1.478       .  S
C694        O699   1.273       .  A
C694        O697   1.265       .  A
C694       C2318   1.475       .  S
Cd695       O702   2.390       .  S
Cd695       O701   2.454       .  S
Cd695       O700   2.448       .  S
Cd695       O696   2.489       .  S
Cd695       O699   2.517       .  S
Cd695       O697   2.404       .  S
C698        O702   1.263       .  A
C698       C2861   1.472       .  S
O703        C706   1.269       .  A
O703       Cd708   2.486       .  S
C704        O713   1.266       .  A
C704        O709   1.270       .  A
C704       C2300   1.467       .  S
O705        C711   1.260       .  A
O705       Cd708   2.359       .  S
C706        O714   1.265       .  A
C706       C2285   1.472       .  S
C707        O712   1.272       .  A
C707        O710   1.266       .  A
C707       C2321   1.474       .  S
Cd708       O715   2.527       .  S
Cd708       O714   2.441       .  S
Cd708       O713   2.428       .  S
Cd708       O709   2.476       .  S
Cd708       O712   2.508       .  S
Cd708       O710   2.410       .  S
C711        O715   1.273       .  A
C711       C3203   1.467       .  S
O716        C719   1.272       .  A
O716       Cd721   2.453       .  S
C717        O726   1.267       .  A
C717        O722   1.272       .  A
C717       C2264   1.469       .  S
O718        C724   1.274       .  A
O718       Cd721   2.507       .  S
C719        O727   1.268       .  A
C719       C2303   1.466       .  S
C720        O725   1.277       .  A
C720        O723   1.263       .  A
C720       C2627   1.470       .  S
Cd721       O728   2.418       .  S
Cd721       O727   2.417       .  S
Cd721       O726   2.432       .  S
Cd721       O722   2.456       .  S
Cd721       O725   2.504       .  S
Cd721       O723   2.378       .  S
C724        O728   1.268       .  A
C724       C2426   1.478       .  S
O729        C732   1.273       .  A
O729       Cd734   2.500       .  S
C730        O739   1.268       .  A
C730        O735   1.273       .  A
C730       C2246   1.475       .  S
O731        C737   1.275       .  A
O731       Cd734   2.496       .  S
C732        O740   1.266       .  A
C732       C2393   1.479       .  S
C733        O738   1.274       .  A
C733        O736   1.266       .  A
C733       C2228   1.476       .  S
Cd734       O741   2.383       .  S
Cd734       O740   2.446       .  S
Cd734       O739   2.448       .  S
Cd734       O735   2.479       .  S
Cd734       O738   2.527       .  S
Cd734       O736   2.389       .  S
C737        O741   1.263       .  A
C737       C2987   1.466       .  S
O742        C745   1.271       .  A
O742       Cd747   2.481       .  S
C743        O752   1.264       .  A
C743        O748   1.269       .  A
C743       C2192   1.470       .  S
O744        C750   1.272       .  A
O744       Cd747   2.519       .  S
C745        O753   1.268       .  A
C745       C2249   1.474       .  S
C746        O751   1.273       .  A
C746        O749   1.262       .  A
C746       C3668   1.474       .  S
Cd747       O754   2.426       .  S
Cd747       O753   2.440       .  S
Cd747       O752   2.443       .  S
Cd747       O748   2.473       .  S
Cd747       O751   2.535       .  S
Cd747       O749   2.391       .  S
C750        O754   1.265       .  A
C750       C2210   1.477       .  S
O755        C758   1.271       .  A
O755       Cd760   2.468       .  S
C756        O765   1.266       .  A
C756        O761   1.271       .  A
C756       C2174   1.466       .  S
O757        C763   1.273       .  A
O757       Cd760   2.504       .  S
C758        O766   1.265       .  A
C758       C3095   1.467       .  S
C759        O764   1.272       .  A
C759        O762   1.266       .  A
C759       C2213   1.477       .  S
Cd760       O767   2.399       .  S
Cd760       O766   2.423       .  S
Cd760       O765   2.401       .  S
Cd760       O761   2.483       .  S
Cd760       O764   2.523       .  S
Cd760       O762   2.410       .  S
C763        O767   1.262       .  A
C763       C4121   1.469       .  S
O768        C771   1.269       .  A
O768       Cd773   2.461       .  S
C769        O778   1.268       .  A
C769        O774   1.270       .  A
C769       C2177   1.466       .  S
O770        C776   1.274       .  A
O770       Cd773   2.514       .  S
C771        O779   1.265       .  A
C771       C2120   1.465       .  S
C772        O777   1.272       .  A
C772        O775   1.265       .  A
C772       C2138   1.472       .  S
Cd773       O780   2.376       .  S
Cd773       O779   2.428       .  S
Cd773       O778   2.429       .  S
Cd773       O774   2.446       .  S
Cd773       O777   2.503       .  S
Cd773       O775   2.406       .  S
C776        O780   1.261       .  A
C776       C2159   1.465       .  S
O781        C784   1.272       .  A
O781       Cd786   2.494       .  S
C782        O791   1.264       .  A
C782        O787   1.271       .  A
C782       C3797   1.477       .  S
O783        C789   1.271       .  A
O783       Cd786   2.516       .  S
C784        O792   1.268       .  A
C784       C2084   1.478       .  S
C785        O790   1.272       .  A
C785        O788   1.261       .  A
C785       C2105   1.474       .  S
Cd786       O793   2.417       .  S
Cd786       O792   2.452       .  S
Cd786       O791   2.444       .  S
Cd786       O787   2.506       .  S
Cd786       O790   2.537       .  S
Cd786       O788   2.394       .  S
C789        O793   1.266       .  A
C789       C2231   1.475       .  S
O794        C797   1.271       .  A
O794       Cd799   2.501       .  S
C795        O804   1.268       .  A
C795        O800   1.272       .  A
C795       C2087   1.475       .  S
O796        C802   1.273       .  A
O796       Cd799   2.520       .  S
C797        O805   1.265       .  A
C797       C2048   1.476       .  S
C798        O803   1.273       .  A
C798        O801   1.265       .  A
C798       C2066   1.473       .  S
Cd799       O806   2.375       .  S
Cd799       O805   2.445       .  S
Cd799       O804   2.455       .  S
Cd799       O800   2.469       .  S
Cd799       O803   2.509       .  S
Cd799       O801   2.406       .  S
C802        O806   1.262       .  A
C802       C2444   1.468       .  S
O807        C810   1.269       .  A
O807       Cd812   2.453       .  S
C808        O817   1.267       .  A
C808        O813   1.270       .  A
C808       C2012   1.470       .  S
O809        C815   1.274       .  A
O809       Cd812   2.520       .  S
C810        O818   1.266       .  A
C810       C1994   1.469       .  S
C811        O816   1.273       .  A
C811        O814   1.264       .  A
C811       C2069   1.473       .  S
Cd812       O819   2.390       .  S
Cd812       O818   2.448       .  S
Cd812       O817   2.425       .  S
Cd812       O813   2.466       .  S
Cd812       O816   2.511       .  S
Cd812       O814   2.402       .  S
C815        O819   1.262       .  A
C815       C2030   1.470       .  S
O820        C823   1.270       .  A
O820       Cd825   2.486       .  S
C821        O830   1.264       .  A
C821        O826   1.270       .  A
C821       C4265   1.476       .  S
O822        C828   1.273       .  A
O822       Cd825   2.505       .  S
C823        O831   1.267       .  A
C823       C2015   1.475       .  S
C824        O829   1.272       .  A
C824        O827   1.261       .  A
C824       C1979   1.474       .  S
Cd825       O832   2.411       .  S
Cd825       O831   2.457       .  S
Cd825       O830   2.459       .  S
Cd825       O826   2.492       .  S
Cd825       O829   2.536       .  S
Cd825       O827   2.409       .  S
C828        O832   1.266       .  A
C828       C2141   1.473       .  S
O833        C836   1.269       .  A
O833       Cd838   2.478       .  S
C834        O843   1.268       .  A
C834        O839   1.271       .  A
C834       C1961   1.469       .  S
O835        C841   1.273       .  A
O835       Cd838   2.521       .  S
C836        O844   1.264       .  A
C836       C1922   1.468       .  S
C837        O842   1.274       .  A
C837        O840   1.264       .  A
C837       C1940   1.475       .  S
Cd838       O845   2.400       .  S
Cd838       O844   2.429       .  S
Cd838       O843   2.427       .  S
Cd838       O839   2.461       .  S
Cd838       O842   2.525       .  S
Cd838       O840   2.389       .  S
C841        O845   1.260       .  A
C841       C4319   1.471       .  S
O846        C849   1.269       .  A
O846       Cd851   2.483       .  S
C847        O856   1.268       .  A
C847        O852   1.271       .  A
C847       C1958   1.471       .  S
O848        C854   1.273       .  A
O848       Cd851   2.540       .  S
C849        O857   1.264       .  A
C849       C1886   1.470       .  S
C850        O855   1.272       .  A
C850        O853   1.265       .  A
C850       C1904   1.482       .  S
Cd851       O858   2.400       .  S
Cd851       O857   2.436       .  S
Cd851       O856   2.435       .  S
Cd851       O852   2.476       .  S
Cd851       O855   2.531       .  S
Cd851       O853   2.445       .  S
C854        O858   1.260       .  A
C854       C1997   1.473       .  S
O859        C862   1.270       .  A
O859       Cd864   2.501       .  S
C860        O869   1.265       .  A
C860        O865   1.271       .  A
C860       C4463   1.477       .  S
O861        C867   1.274       .  A
O861       Cd864   2.535       .  S
C862        O870   1.268       .  A
C862       C1868   1.481       .  S
C863        O868   1.273       .  A
C863        O866   1.261       .  A
C863       C2843   1.481       .  S
Cd864       O871   2.423       .  S
Cd864       O870   2.470       .  S
Cd864       O869   2.457       .  S
Cd864       O865   2.495       .  S
Cd864       O868   2.556       .  S
Cd864       O866   2.421       .  S
C867        O871   1.264       .  A
C867       C1907   1.481       .  S
O872        C875   1.271       .  A
O872       Cd877   2.487       .  S
C873        O882   1.265       .  A
C873        O878   1.271       .  A
C873       C2717   1.473       .  S
O874        C880   1.273       .  A
O874       Cd877   2.509       .  S
C875        O883   1.268       .  A
C875       C1871   1.479       .  S
C876        O881   1.274       .  A
C876        O879   1.261       .  A
C876       C1850   1.470       .  S
Cd877       O884   2.415       .  S
Cd877       O883   2.458       .  S
Cd877       O882   2.436       .  S
Cd877       O878   2.489       .  S
Cd877       O881   2.537       .  S
Cd877       O879   2.376       .  S
C880        O884   1.265       .  A
C880       C1832   1.475       .  S
O885        C888   1.270       .  A
O885       Cd890   2.493       .  S
C886        O895   1.266       .  A
C886        O891   1.271       .  A
C886       C1814   1.472       .  S
O887        C893   1.273       .  A
O887       Cd890   2.517       .  S
C888        O896   1.265       .  A
C888       C3581   1.471       .  S
C889        O894   1.272       .  A
C889        O892   1.266       .  A
C889       C1799   1.481       .  S
Cd890       O897   2.382       .  S
Cd890       O896   2.431       .  S
Cd890       O895   2.428       .  S
Cd890       O891   2.487       .  S
Cd890       O894   2.529       .  S
Cd890       O892   2.423       .  S
C893        O897   1.261       .  A
C893       C2786   1.467       .  S
O898        C901   1.268       .  A
O898       Cd903   2.452       .  S
C899        O908   1.268       .  A
C899        O904   1.270       .  A
C899       C1817   1.465       .  S
O900        C906   1.274       .  A
O900       Cd903   2.520       .  S
C901        O909   1.266       .  A
C901       C2969   1.469       .  S
C902        O907   1.273       .  A
C902        O905   1.265       .  A
C902       C1835   1.477       .  S
Cd903       O910   2.396       .  S
Cd903       O909   2.459       .  S
Cd903       O908   2.431       .  S
Cd903       O904   2.448       .  S
Cd903       O907   2.516       .  S
Cd903       O905   2.421       .  S
C906        O910   1.261       .  A
C906       C3257   1.470       .  S
O911        C914   1.271       .  A
O911       Cd916   2.513       .  S
C912        O921   1.267       .  A
C912        O917   1.272       .  A
C912       C1778   1.481       .  S
O913        C919   1.273       .  A
O913       Cd916   2.547       .  S
C914        O922   1.265       .  A
C914       C2102   1.479       .  S
C915        O920   1.272       .  A
C915        O918   1.266       .  A
C915       C1943   1.484   1_565  S
Cd916       O923   2.408       .  S
Cd916       O922   2.452       .  S
Cd916       O921   2.453       .  S
Cd916       O917   2.515       .  S
Cd916       O920   2.541       .  S
Cd916       O918   2.442       .  S
C919        O923   1.262       .  A
C919       C3761   1.478       .  S
O924        C927   1.272       .  A
O924       Cd929   2.475       .  S
C925        O934   1.264       .  A
C925        O930   1.270       .  A
C925       C3344   1.474       .  S
O926        C932   1.273       .  A
O926       Cd929   2.540       .  S
C927        O935   1.268       .  A
C927       C1781   1.474       .  S
C928        O933   1.273       .  A
C928        O931   1.261       .  A
C928       C1763   1.478       .  S
Cd929       O936   2.442       .  S
Cd929       O935   2.440       .  S
Cd929       O934   2.439       .  S
Cd929       O930   2.505       .  S
Cd929       O933   2.543       .  S
Cd929       O931   2.413       .  S
C932        O936   1.266       .  A
C932       C1796   1.485       .  S
O937        C940   1.274       .  A
O937       Cd942   2.508       .  S
C938        O947   1.269       .  A
C938        O943   1.275       .  A
C938       C1742   1.477       .  S
O939        C945   1.275       .  A
O939       Cd942   2.518       .  S
C940        O948   1.266       .  A
C940       C2357   1.480       .  S
C941        O946   1.275       .  A
C941        O944   1.267       .  A
C941       C1724   1.476       .  S
Cd942       O949   2.397       .  S
Cd942       O948   2.447       .  S
Cd942       O947   2.431       .  S
Cd942       O943   2.488       .  S
Cd942       O946   2.508       .  S
Cd942       O944   2.413       .  S
C945        O949   1.264       .  A
C945       C4373   1.473       .  S
O950        C953   1.270       .  A
O950       Cd955   2.473       .  S
C951        O960   1.269       .  A
C951        O956   1.271       .  A
C951       C1745   1.473       .  S
O952        C958   1.274       .  A
O952       Cd955   2.547       .  S
C953        O961   1.264       .  A
C953       C1853   1.470       .  S
C954        O959   1.274       .  A
C954        O957   1.266       .  A
C954       C1706   1.478       .  S
Cd955       O962   2.400       .  S
Cd955       O961   2.441       .  S
Cd955       O960   2.453       .  S
Cd955       O956   2.466       .  S
Cd955       O959   2.511       .  S
Cd955       O957   2.425       .  S
C958        O962   1.262       .  A
C958       C2681   1.478       .  S
O963        C966   1.270       .  A
O963       Cd968   2.455       .  S
C964        O973   1.266       .  A
C964        O969   1.270       .  A
C964       C2609   1.468       .  S
O965        C971   1.272       .  A
O965       Cd968   2.516       .  S
C966        O974   1.267       .  A
C966       C1670   1.463       .  S
C967        O972   1.272       .  A
C967        O970   1.261       .  A
C967       C1688   1.472       .  S
Cd968       O975   2.399       .  S
Cd968       O974   2.407       .  S
Cd968       O973   2.427       .  S
Cd968       O969   2.466       .  S
Cd968       O972   2.520       .  S
Cd968       O970   2.399       .  S
C971        O975   1.265       .  A
C971       C1727   1.474       .  S
O976        C979   1.270       .  A
O976       Cd981   2.470       .  S
C977        O986   1.269       .  A
C977        O982   1.271       .  A
C977       C1673   1.465       .  S
O978        C984   1.275       .  A
O978       Cd981   2.520       .  S
C979        O987   1.266       .  A
C979       C3239   1.471       .  S
C980        O985   1.274       .  A
C980        O983   1.265       .  A
C980       C1652   1.474       .  S
Cd981       O988   2.397       .  S
Cd981       O987   2.439       .  S
Cd981       O986   2.432       .  S
Cd981       O982   2.444       .  S
Cd981       O985   2.517       .  S
Cd981       O983   2.392       .  S
C984        O988   1.262       .  A
C984       C2282   1.472       .  S
O989        C992   1.271       .  A
O989       Cd994   2.489       .  S
C990        O999   1.268       .  A
C990        O995   1.271       .  A
C990       C1634   1.480       .  S
O991        C997   1.273       .  A
O991       Cd994   2.526       .  S
C992       O1000   1.265       .  A
C992       C1616   1.474       .  S
C993        O998   1.273       .  A
C993        O996   1.265       .  A
C993       C1655   1.468       .  S
Cd994      O1001   2.360       .  S
Cd994      O1000   2.441       .  S
Cd994       O999   2.455       .  S
Cd994       O995   2.498       .  S
Cd994       O998   2.497       .  S
Cd994       O996   2.385       .  S
C997       O1001   1.262       .  A
C997       C2123   1.467       .  S
O1002      C1005   1.272       .  A
O1002     Cd1007   2.472       .  S
C1003      O1012   1.268       .  A
C1003      O1008   1.271       .  A
C1003      C1637   1.478       .  S
O1004      C1010   1.275       .  A
O1004     Cd1007   2.523       .  S
C1005      O1013   1.266       .  A
C1005      C4103   1.474       .  S
C1006      O1011   1.274       .  A
C1006      O1009   1.267       .  A
C1006      C1598   1.477       .  S
Cd1007     O1014   2.379       .  S
Cd1007     O1013   2.443       .  S
Cd1007     O1012   2.459       .  S
Cd1007     O1008   2.487       .  S
Cd1007     O1011   2.521       .  S
Cd1007     O1009   2.408       .  S
C1010      O1014   1.262       .  A
C1010      C3419   1.471       .  S
O1015      C1018   1.270       .  A
O1015     Cd1020   2.476       .  S
C1016      O1025   1.264       .  A
C1016      O1021   1.270       .  A
C1016      C4301   1.466       .  S
O1017      C1023   1.273       .  A
O1017     Cd1020   2.519       .  S
C1018      O1026   1.268       .  A
C1018      C1583   1.472       .  S
C1019      O1024   1.271       .  A
C1019      O1022   1.261       .  A
C1019      C4175   1.476       .  S
Cd1020     O1027   2.414       .  S
Cd1020     O1026   2.439       .  S
Cd1020     O1025   2.436       .  S
Cd1020     O1021   2.461       .  S
Cd1020     O1024   2.541       .  S
Cd1020     O1022   2.405       .  S
C1023      O1027   1.264       .  A
C1023      C1709   1.477       .  S
O1028      C1031   1.270       .  A
O1028     Cd1033   2.470       .  S
C1029      O1038   1.267       .  A
C1029      O1034   1.272       .  A
C1029      C1580   1.469       .  S
O1030      C1036   1.275       .  A
O1030     Cd1033   2.506       .  S
C1031      O1039   1.267       .  A
C1031      C2033   1.473       .  S
C1032      O1037   1.274       .  A
C1032      O1035   1.265       .  A
C1032      C1601   1.473       .  S
Cd1033     O1040   2.376       .  S
Cd1033     O1039   2.451       .  S
Cd1033     O1038   2.421       .  S
Cd1033     O1034   2.471       .  S
Cd1033     O1037   2.516       .  S
Cd1033     O1035   2.385       .  S
C1036      O1040   1.262       .  A
C1036      C1889   1.467       .  S
O1041      C1044   1.272       .  A
O1041     Cd1046   2.487       .  S
C1042      O1051   1.264       .  A
C1042      O1047   1.271       .  A
C1042      C1976   1.476       .  S
O1043      C1049   1.272       .  A
O1043     Cd1046   2.537       .  S
C1044      O1052   1.267       .  A
C1044      C1562   1.472       .  S
C1045      O1050   1.271       .  A
C1045      O1048   1.261       .  A
C1045      C4208   1.465       .  S
Cd1046     O1053   2.396       .  S
Cd1046     O1052   2.431       .  S
Cd1046     O1051   2.451       .  S
Cd1046     O1047   2.493       .  S
Cd1046     O1050   2.494       .  S
Cd1046     O1048   2.398       .  S
C1049      O1053   1.264       .  A
C1049      C1544   1.476       .  S
O1054      C1057   1.270       .  A
O1054     Cd1059   2.487       .  S
C1055      O1064   1.268       .  A
C1055      O1060   1.271       .  A
C1055      C1565   1.474       .  S
O1056      C1062   1.272       .  A
O1056     Cd1059   2.521       .  S
C1057      O1065   1.264       .  A
C1057      C4352   1.474       .  S
C1058      O1063   1.272       .  A
C1058      O1061   1.265       .  A
C1058      C1526   1.472       .  S
Cd1059     O1066   2.378       .  S
Cd1059     O1065   2.447       .  S
Cd1059     O1064   2.439       .  S
Cd1059     O1060   2.486       .  S
Cd1059     O1063   2.516       .  S
Cd1059     O1061   2.399       .  S
C1062      O1066   1.261       .  A
C1062      C1925   1.468       .  S
O1067      C1070   1.271       .  A
O1067     Cd1072   2.503       .  S
C1068      O1077   1.267       .  A
C1068      O1073   1.271       .  A
C1068      C1508   1.479       .  S
O1069      C1075   1.273       .  A
O1069     Cd1072   2.516       .  S
C1070      O1078   1.265       .  A
C1070      C2663   1.478       .  S
C1071      O1076   1.273       .  A
C1071      O1074   1.265       .  A
C1071      C1490   1.475       .  S
Cd1072     O1079   2.386       .  S
Cd1072     O1078   2.453       .  S
Cd1072     O1077   2.456       .  S
Cd1072     O1073   2.497       .  S
Cd1072     O1076   2.523       .  S
Cd1072     O1074   2.400       .  S
C1075      O1079   1.262       .  A
C1075      C2267   1.468       .  S
O1080      C1083   1.270       .  A
O1080     Cd1085   2.496       .  S
C1081      O1090   1.267       .  A
C1081      O1086   1.272       .  A
C1081      C1511   1.478       .  S
O1082      C1088   1.273       .  A
O1082     Cd1085   2.537       .  S
C1083      O1091   1.265       .  A
C1083      C3185   1.478       .  S
C1084      O1089   1.272       .  A
C1084      O1087   1.264       .  A
C1084      C1457   1.476       .  S
Cd1085     O1092   2.396       .  S
Cd1085     O1091   2.463       .  S
Cd1085     O1090   2.441       .  S
Cd1085     O1086   2.500       .  S
Cd1085     O1089   2.519       .  S
Cd1085     O1087   2.428       .  S
C1088      O1092   1.262       .  A
C1088      C1472   1.473       .  S
O1093      C1096   1.269   1_455  A
O1093     Cd1098   2.481   1_455  S
C1094      O1103   1.267       .  A
C1094      O1099   1.271       .  A
C1094      C1436   1.467       .  S
O1095      C1101   1.273       .  A
O1095     Cd1098   2.538       .  S
C1096      O1104   1.264       .  A
C1096      C1418   1.469       .  S
C1097      O1102   1.273   1_455  A
C1097      O1100   1.265       .  A
C1097      C1493   1.476       .  S
Cd1098     O1105   2.408       .  S
Cd1098     O1104   2.431       .  S
Cd1098     O1103   2.419   1_655  S
Cd1098     O1099   2.466   1_655  S
Cd1098     O1102   2.506       .  S
Cd1098     O1100   2.431   1_655  S
C1101      O1105   1.261       .  A
C1101      C4589   1.475       .  S
O1106      C1109   1.271       .  A
O1106     Cd1111   2.467       .  S
C1107      O1116   1.266       .  A
C1107      O1112   1.271       .  A
C1107      C4010   1.478       .  S
O1108      C1114   1.273       .  A
O1108     Cd1111   2.514       .  S
C1109      O1117   1.268       .  A
C1109      C1439   1.471       .  S
C1110      O1115   1.274       .  A
C1110      O1113   1.263       .  A
C1110      C2519   1.468       .  S
Cd1111     O1118   2.378       .  S
Cd1111     O1117   2.450       .  S
Cd1111     O1116   2.461       .  S
Cd1111     O1112   2.487       .  S
Cd1111     O1115   2.511       .  S
Cd1111     O1113   2.380       .  S
C1114      O1118   1.264       .  A
C1114      C1529   1.470       .  S
O1119      C1122   1.270       .  A
O1119     Cd1124   2.495       .  S
C1120      O1129   1.267       .  A
C1120      O1125   1.272       .  A
C1120      C1400   1.471       .  S
O1121      C1127   1.271       .  A
O1121     Cd1124   2.534       .  S
C1122      O1130   1.263       .  A
C1122      C2498   1.473       .  S
C1123      O1128   1.271   1_455  A
C1123      O1126   1.264       .  A
C1123      C1454   1.474       .  S
Cd1124     O1131   2.389       .  S
Cd1124     O1130   2.441       .  S
Cd1124     O1129   2.420   1_655  S
Cd1124     O1125   2.490   1_655  S
Cd1124     O1128   2.505       .  S
Cd1124     O1126   2.426   1_655  S
C1127      O1131   1.261       .  A
C1127      C2051   1.472       .  S
O1132      C1135   1.268       .  A
O1132     Cd1137   2.473       .  S
C1133      O1142   1.266       .  A
C1133      O1138   1.270       .  A
C1133      C1403   1.469       .  S
O1134      C1140   1.273       .  A
O1134     Cd1137   2.538       .  S
C1135      O1143   1.267       .  A
C1135      C1760   1.475       .  S
C1136      O1141   1.272       .  A
C1136      O1139   1.265       .  A
C1136      C1547   1.479       .  S
Cd1137     O1144   2.386       .  S
Cd1137     O1143   2.467       .  S
Cd1137     O1142   2.433       .  S
Cd1137     O1138   2.469       .  S
Cd1137     O1141   2.537       .  S
Cd1137     O1139   2.417       .  S
C1140      O1144   1.259       .  A
C1140      C3311   1.471       .  S
O1145      C1148   1.271       .  A
O1145     Cd1150   2.474       .  S
C1146      O1155   1.269       .  A
C1146      O1151   1.273       .  A
C1146      C1382   1.472       .  S
O1147      C1153   1.276       .  A
O1147     Cd1150   2.520       .  S
C1148      O1156   1.266       .  A
C1148      C3689   1.469       .  S
C1149      O1154   1.274       .  A
C1149      O1152   1.267       .  A
C1149      C1364   1.483       .  S
Cd1150     O1157   2.397       .  S
Cd1150     O1156   2.426       .  S
Cd1150     O1155   2.412       .  S
Cd1150     O1151   2.481       .  S
Cd1150     O1154   2.532       .  S
Cd1150     O1152   2.424       .  S
C1153      O1157   1.263       .  A
C1153      C2195   1.473       .  S
O1158      C1161   1.270       .  A
O1158     Cd1163   2.490       .  S
C1159      O1168   1.267       .  A
C1159      O1164   1.269       .  A
C1159      C1385   1.471       .  S
O1160      C1166   1.273       .  A
O1160     Cd1163   2.508       .  S
C1161      O1169   1.263       .  A
C1161      C3059   1.466       .  S
C1162      O1167   1.272       .  A
C1162      O1165   1.265       .  A
C1162      C1346   1.475       .  S
Cd1163     O1170   2.378       .  S
Cd1163     O1169   2.401       .  S
Cd1163     O1168   2.437       .  S
Cd1163     O1164   2.473       .  S
Cd1163     O1167   2.523       .  S
Cd1163     O1165   2.406       .  S
C1166      O1170   1.261       .  A
C1166      C4481   1.465       .  S
O1171      C1174   1.270       .  A
O1171     Cd1176   2.500       .  S
C1172      O1181   1.267       .  A
C1172      O1177   1.273       .  A
C1172      C1328   1.472       .  S
O1173      C1179   1.272       .  A
O1173     Cd1176   2.522       .  S
C1174      O1182   1.263       .  A
C1174      C2156   1.472       .  S
C1175      O1180   1.271       .  A
C1175      O1178   1.264       .  A
C1175      C1349   1.474       .  S
Cd1176     O1183   2.390       .  S
Cd1176     O1182   2.433       .  S
Cd1176     O1181   2.433       .  S
Cd1176     O1177   2.477       .  S
Cd1176     O1180   2.512       .  S
Cd1176     O1178   2.420       .  S
C1179      O1183   1.260       .  A
C1179      C1619   1.470       .  S
O1184      C1187   1.269       .  A
O1184     Cd1189   2.498       .  S
C1185      O1194   1.267       .  A
C1185      O1190   1.272       .  A
C1185      C1331   1.473       .  S
O1186      C1192   1.269       .  A
O1186     Cd1189   2.498       .  S
C1187      O1195   1.262       .  A
C1187      C3509   1.471       .  S
C1188      O1193   1.270       .  A
C1188      O1191   1.264       .  A
C1188      C1310   1.475       .  S
Cd1189     O1196   2.404       .  S
Cd1189     O1195   2.439       .  S
Cd1189     O1194   2.426       .  S
Cd1189     O1190   2.494       .  S
Cd1189     O1193   2.529       .  S
Cd1189     O1191   2.409       .  S
C1192      O1196   1.259       .  A
C1192      C3113   1.463       .  S
O1197      C1200   1.271       .  A
O1197     Cd1202   2.478       .  S
C1198      O1207   1.266       .  A
C1198      O1203   1.270       .  A
C1198      C4622   1.480       .  S
O1199      C1205   1.272       .  A
O1199     Cd1202   2.535       .  S
C1200      O1208   1.267       .  A
C1200      C1292   1.472       .  S
C1201      O1206   1.273       .  A
C1201      O1204   1.260       .  A
C1201      C1421   1.471       .  S
Cd1202     O1209   2.436       .  S
Cd1202     O1208   2.443       .  S
Cd1202     O1207   2.465       .  S
Cd1202     O1203   2.491       .  S
Cd1202     O1206   2.527       .  S
Cd1202     O1204   2.407       .  S
C1205      O1209   1.265       .  A
C1205      C1367   1.483       .  S
O1210      C1213   1.267       .  A
O1210     Cd1215   2.464       .  S
C1211      O1220   1.268       .  A
C1211      O1216   1.270       .  A
C1211      C1295   1.468       .  S
O1212      C1218   1.272       .  A
O1212     Cd1215   2.517       .  S
C1213      O1221   1.265       .  A
C1213      C2555   1.469       .  S
C1214      O1219   1.273       .  A
C1214      O1217   1.263       .  A
C1214      C1277   1.470       .  S
Cd1215     O1222   2.387       .  S
Cd1215     O1221   2.450       .  S
Cd1215     O1220   2.412       .  S
Cd1215     O1216   2.472       .  S
Cd1215     O1219   2.529       .  S
Cd1215     O1217   2.374       .  S
C1218      O1222   1.260       .  A
C1218      C3617   1.467       .  S
O1223      C1226   1.272       .  A
O1223     Cd1228   2.491       .  S
C1224      O1233   1.266       .  A
C1224      O1229   1.273       .  A
C1224      C1256   1.476       .  S
O1225      C1231   1.273       .  A
O1225     Cd1228   2.503       .  S
C1226      O1234   1.265       .  A
C1226      C1475   1.476       .  S
C1227      O1232   1.271       .  A
C1227      O1230   1.267       .  A
C1227      C1274   1.470       .  S
Cd1228     O1235   2.373       .  S
Cd1228     O1234   2.445       .  S
Cd1228     O1233   2.432       .  S
Cd1228     O1229   2.502       .  S
Cd1228     O1232   2.498       .  S
Cd1228     O1230   2.403       .  S
C1231      O1235   1.262       .  A
C1231      C3167   1.465       .  S
O1236      C1239   1.270       .  A
O1236     Cd1241   2.483       .  S
C1237      O1246   1.267       .  A
C1237      O1242   1.271       .  A
C1237      C1259   1.471       .  S
O1238      C1244   1.272       .  A
O1238     Cd1241   2.523       .  S
C1239      O1247   1.265       .  A
C1239      C1691   1.474       .  S
C1240      O1245   1.272       .  A
C1240      O1243   1.264       .  A
C1240      C1313   1.479       .  S
Cd1241     O1248   2.418       .  S
Cd1241     O1247   2.456       .  S
Cd1241     O1246   2.433       .  S
Cd1241     O1242   2.476       .  S
Cd1241     O1245   2.531       .  S
Cd1241     O1243   2.428       .  S
C1244      O1248   1.260       .  A
C1244      C2573   1.473       .  S
C1249      C1254   1.384       .  A
C1249      C1250   1.403       .  A
C1249      N1255   1.342       .  A
C1250      C1251   1.401       .  A
C1250      H1261   1.082       .  S
C1251      C1260   1.377       .  A
C1251      C1252   1.384       .  A
C1252      C1253   1.408       .  A
C1252      N1258   1.346       .  A
C1253      C1254   1.407       .  A
C1253      H1262   1.082       .  S
C1254      C1257   1.385       .  A
N1255      C1256   1.356       .  A
N1255      H1265   1.044       .  S
C1256      C1257   1.398       .  A
C1257      H1263   1.082       .  S
N1258      C1259   1.357       .  A
N1258      H1266   1.045       .  S
C1259      C1260   1.395       .  A
C1260      H1264   1.083       .  S
C1267      C1272   1.384       .  A
C1267      C1268   1.410       .  A
C1267      N1273   1.349       .  A
C1268      C1269   1.409       .  A
C1268      H1279   1.082       .  S
C1269      C1278   1.389       .  A
C1269      C1270   1.385       .  A
C1270      C1271   1.396       .  A
C1270      N1276   1.335       .  A
C1271      C1272   1.394       .  A
C1271      H1280   1.083       .  S
C1272      C1275   1.369       .  A
N1273      C1274   1.359       .  A
N1273      H1283   1.045       .  S
C1274      C1275   1.391       .  A
C1275      H1281   1.083       .  S
N1276      C1277   1.352       .  A
N1276      H1284   1.045       .  S
C1277      C1278   1.399       .  A
C1278      H1282   1.082       .  S
C1285      C1290   1.385       .  A
C1285      C1286   1.400       .  A
C1285      N1291   1.342       .  A
C1286      C1287   1.399       .  A
C1286      H1297   1.082       .  S
C1287      C1296   1.372       .  A
C1287      C1288   1.384       .  A
C1288      C1289   1.407       .  A
C1288      N1294   1.347       .  A
C1289      C1290   1.407       .  A
C1289      H1298   1.082       .  S
C1290      C1293   1.382       .  A
N1291      C1292   1.354   1_455  A
N1291      H1301   1.045   1_455  S
C1292      C1293   1.398   1_655  A
C1293      H1299   1.082   1_455  S
N1294      C1295   1.357       .  A
N1294      H1302   1.045       .  S
C1295      C1296   1.391       .  A
C1296      H1300   1.083       .  S
C1303      C1308   1.384       .  A
C1303      C1304   1.412       .  A
C1303      N1309   1.352       .  A
C1304      C1305   1.413       .  A
C1304      H1315   1.082       .  S
C1305      C1314   1.390       .  A
C1305      C1306   1.384       .  A
C1306      C1307   1.399       .  A
C1306      N1312   1.340       .  A
C1307      C1308   1.397       .  A
C1307      H1316   1.083       .  S
C1308      C1311   1.370       .  A
N1309      C1310   1.360       .  A
N1309      H1319   1.045       .  S
C1310      C1311   1.391       .  A
C1311      H1317   1.083       .  S
N1312      C1313   1.354       .  A
N1312      H1320   1.045       .  S
C1313      C1314   1.401       .  A
C1314      H1318   1.082       .  S
C1321      C1326   1.384       .  A
C1321      C1322   1.403       .  A
C1321      N1327   1.343       .  A
C1322      C1323   1.403       .  A
C1322      H1333   1.083       .  S
C1323      C1332   1.376       .  A
C1323      C1324   1.385       .  A
C1324      C1325   1.406       .  A
C1324      N1330   1.347       .  A
C1325      C1326   1.405       .  A
C1325      H1334   1.082       .  S
C1326      C1329   1.381       .  A
N1327      C1328   1.356       .  A
N1327      H1337   1.045       .  S
C1328      C1329   1.396       .  A
C1329      H1335   1.082       .  S
N1330      C1331   1.357       .  A
N1330      H1338   1.045       .  S
C1331      C1332   1.395       .  A
C1332      H1336   1.082       .  S
C1339      C1344   1.384       .  A
C1339      C1340   1.411       .  A
C1339      N1345   1.351       .  A
C1340      C1341   1.411       .  A
C1340      H1351   1.082       .  S
C1341      C1350   1.388       .  A
C1341      C1342   1.385       .  A
C1342      C1343   1.398       .  A
C1342      N1348   1.339       .  A
C1343      C1344   1.397       .  A
C1343      H1352   1.083       .  S
C1344      C1347   1.370       .  A
N1345      C1346   1.359       .  A
N1345      H1355   1.044       .  S
C1346      C1347   1.392       .  A
C1347      H1353   1.083       .  S
N1348      C1349   1.353       .  A
N1348      H1356   1.045       .  S
C1349      C1350   1.400       .  A
C1350      H1354   1.082       .  S
C1357      C1362   1.384       .  A
C1357      C1358   1.414       .  A
C1357      N1363   1.353       .  A
C1358      C1359   1.413       .  A
C1358      H1369   1.082       .  S
C1359      C1368   1.391       .  A
C1359      C1360   1.384       .  A
C1360      C1361   1.401       .  A
C1360      N1366   1.342       .  A
C1361      C1362   1.400       .  A
C1361      H1370   1.083       .  S
C1362      C1365   1.374       .  A
N1363      C1364   1.360       .  A
N1363      H1373   1.045       .  S
C1364      C1365   1.394       .  A
C1365      H1371   1.083       .  S
N1366      C1367   1.355       .  A
N1366      H1374   1.045       .  S
C1367      C1368   1.402       .  A
C1368      H1372   1.082       .  S
C1375      C1380   1.384       .  A
C1375      C1376   1.409       .  A
C1375      N1381   1.349       .  A
C1376      C1377   1.409       .  A
C1376      H1387   1.082       .  S
C1377      C1386   1.384       .  A
C1377      C1378   1.385       .  A
C1378      C1379   1.399       .  A
C1378      N1384   1.341       .  A
C1379      C1380   1.398       .  A
C1379      H1388   1.082       .  S
C1380      C1383   1.373       .  A
N1381      C1382   1.358       .  A
N1381      H1391   1.045       .  S
C1382      C1383   1.392       .  A
C1383      H1389   1.083       .  S
N1384      C1385   1.353       .  A
N1384      H1392   1.044       .  S
C1385      C1386   1.399       .  A
C1386      H1390   1.082       .  S
C1393      C1398   1.385       .  A
C1393      C1394   1.406       .  A
C1393      N1399   1.347       .  A
C1394      C1395   1.406       .  A
C1394      H1405   1.082       .  S
C1395      C1404   1.381       .  A
C1395      C1396   1.385       .  A
C1396      C1397   1.400       .  A
C1396      N1402   1.341       .  A
C1397      C1398   1.400       .  A
C1397      H1406   1.082       .  S
C1398      C1401   1.374       .  A
N1399      C1400   1.357       .  A
N1399      H1409   1.045       .  S
C1400      C1401   1.393       .  A
C1401      H1407   1.083       .  S
N1402      C1403   1.354       .  A
N1402      H1410   1.045       .  S
C1403      C1404   1.396       .  A
C1404      H1408   1.082       .  S
C1411      C1416   1.384       .  A
C1411      C1412   1.405       .  A
C1411      N1417   1.342       .  A
C1412      C1413   1.403       .  A
C1412      H1423   1.082       .  S
C1413      C1422   1.384       .  A
C1413      C1414   1.385       .  A
C1414      C1415   1.404       .  A
C1414      N1420   1.341       .  A
C1415      C1416   1.401       .  A
C1415      H1424   1.083   1_655  S
C1416      C1419   1.380       .  A
N1417      C1418   1.356       .  A
N1417      H1427   1.046       .  S
C1418      C1419   1.394       .  A
C1419      H1425   1.082   1_655  S
N1420      C1421   1.356       .  A
N1420      H1428   1.045       .  S
C1421      C1422   1.395       .  A
C1422      H1426   1.082       .  S
C1429      C1434   1.384       .  A
C1429      C1430   1.403       .  A
C1429      N1435   1.341       .  A
C1430      C1431   1.402       .  A
C1430      H1441   1.082       .  S
C1431      C1440   1.379   1_556  A
C1431      C1432   1.385       .  A
C1432      C1433   1.404       .  A
C1432      N1438   1.343   1_556  A
C1433      C1434   1.402       .  A
C1433      H1442   1.082       .  S
C1434      C1437   1.380       .  A
N1435      C1436   1.355       .  A
N1435      H1445   1.045       .  S
C1436      C1437   1.395       .  A
C1437      H1443   1.082       .  S
N1438      C1439   1.355       .  A
N1438      H1446   1.045       .  S
C1439      C1440   1.396       .  A
C1440      H1444   1.083       .  S
C1447      C1452   1.384       .  A
C1447      C1448   1.409       .  A
C1447      N1453   1.348       .  A
C1448      C1449   1.408       .  A
C1448      H1459   1.082       .  S
C1449      C1458   1.386       .  A
C1449      C1450   1.385       .  A
C1450      C1451   1.401       .  A
C1450      N1456   1.341       .  A
C1451      C1452   1.400       .  A
C1451      H1460   1.083       .  S
C1452      C1455   1.374       .  A
N1453      C1454   1.357       .  A
N1453      H1463   1.045       .  S
C1454      C1455   1.394       .  A
C1455      H1461   1.083       .  S
N1456      C1457   1.355       .  A
N1456      H1464   1.045       .  S
C1457      C1458   1.398       .  A
C1458      H1462   1.082       .  S
C1465      C1470   1.385       .  A
C1465      C1466   1.404       .  A
C1465      N1471   1.340       .  A
C1466      C1467   1.400       .  A
C1466      H1477   1.082       .  S
C1467      C1476   1.380       .  A
C1467      C1468   1.383       .  A
C1468      C1469   1.409       .  A
C1468      N1474   1.345       .  A
C1469      C1470   1.407       .  A
C1469      H1478   1.082       .  S
C1470      C1473   1.387       .  A
N1471      C1472   1.355       .  A
N1471      H1481   1.045       .  S
C1472      C1473   1.397       .  A
C1473      H1479   1.082       .  S
N1474      C1475   1.359       .  A
N1474      H1482   1.045       .  S
C1475      C1476   1.394       .  A
C1476      H1480   1.082       .  S
C1483      C1488   1.384       .  A
C1483      C1484   1.410       .  A
C1483      N1489   1.351       .  A
C1484      C1485   1.410       .  A
C1484      H1495   1.082       .  S
C1485      C1494   1.386       .  A
C1485      C1486   1.385       .  A
C1486      C1487   1.400       .  A
C1486      N1492   1.341       .  A
C1487      C1488   1.399       .  A
C1487      H1496   1.083       .  S
C1488      C1491   1.371       .  A
N1489      C1490   1.359       .  A
N1489      H1499   1.045       .  S
C1490      C1491   1.393       .  A
C1491      H1497   1.083       .  S
N1492      C1493   1.355       .  A
N1492      H1500   1.045       .  S
C1493      C1494   1.398       .  A
C1494      H1498   1.082       .  S
C1501      C1506   1.384       .  A
C1501      C1502   1.409       .  A
C1501      N1507   1.348       .  A
C1502      C1503   1.408       .  A
C1502      H1513   1.082       .  S
C1503      C1512   1.386       .  A
C1503      C1504   1.384       .  A
C1504      C1505   1.404       .  A
C1504      N1510   1.343       .  A
C1505      C1506   1.403       .  A
C1505      H1514   1.082       .  S
C1506      C1509   1.379       .  A
N1507      C1508   1.358       .  A
N1507      H1517   1.046       .  S
C1508      C1509   1.396       .  A
C1509      H1515   1.082       .  S
N1510      C1511   1.356       .  A
N1510      H1518   1.045       .  S
C1511      C1512   1.399       .  A
C1512      H1516   1.082       .  S
C1519      C1524   1.384   1_455  A
C1519      C1520   1.412       .  A
C1519      N1525   1.350   1_455  A
C1520      C1521   1.411       .  A
C1520      H1531   1.082       .  S
C1521      C1530   1.389       .  A
C1521      C1522   1.385       .  A
C1522      C1523   1.395   1_455  A
C1522      N1528   1.335       .  A
C1523      C1524   1.394       .  A
C1523      H1532   1.083       .  S
C1524      C1527   1.368       .  A
N1525      C1526   1.359       .  A
N1525      H1535   1.045       .  S
C1526      C1527   1.391       .  A
C1527      H1533   1.083       .  S
N1528      C1529   1.352       .  A
N1528      H1536   1.045       .  S
C1529      C1530   1.400       .  A
C1530      H1534   1.082       .  S
C1537      C1542   1.384   1_655  A
C1537      C1538   1.396       .  A
C1537      N1543   1.336       .  A
C1538      C1539   1.395   1_655  A
C1538      H1549   1.083       .  S
C1539      C1548   1.370       .  A
C1539      C1540   1.384       .  A
C1540      C1541   1.415       .  A
C1540      N1546   1.353       .  A
C1541      C1542   1.414       .  A
C1541      H1550   1.082       .  S
C1542      C1545   1.393       .  A
N1543      C1544   1.352       .  A
N1543      H1553   1.045       .  S
C1544      C1545   1.403   1_655  A
C1545      H1551   1.082       .  S
N1546      C1547   1.361       .  A
N1546      H1554   1.045       .  S
C1547      C1548   1.392       .  A
C1548      H1552   1.083       .  S
C1555      C1560   1.384       .  A
C1555      C1556   1.401       .  A
C1555      N1561   1.342       .  A
C1556      C1557   1.400       .  A
C1556      H1567   1.082       .  S
C1557      C1566   1.375       .  A
C1557      C1558   1.384       .  A
C1558      C1559   1.408       .  A
C1558      N1564   1.348       .  A
C1559      C1560   1.408       .  A
C1559      H1568   1.082       .  S
C1560      C1563   1.384       .  A
N1561      C1562   1.354       .  A
N1561      H1571   1.045       .  S
C1562      C1563   1.398       .  A
C1563      H1569   1.082       .  S
N1564      C1565   1.358       .  A
N1564      H1572   1.045       .  S
C1565      C1566   1.394       .  A
C1566      H1570   1.082       .  S
C1573      C1578   1.384       .  A
C1573      C1574   1.402       .  A
C1573      N1579   1.342       .  A
C1574      C1575   1.401       .  A
C1574      H1585   1.082       .  S
C1575      C1584   1.376       .  A
C1575      C1576   1.385       .  A
C1576      C1577   1.406       .  A
C1576      N1582   1.346       .  A
C1577      C1578   1.405       .  A
C1577      H1586   1.082       .  S
C1578      C1581   1.382       .  A
N1579      C1580   1.355       .  A
N1579      H1589   1.045       .  S
C1580      C1581   1.396       .  A
C1581      H1587   1.082       .  S
N1582      C1583   1.356       .  A
N1582      H1590   1.046       .  S
C1583      C1584   1.394       .  A
C1584      H1588   1.082       .  S
C1591      C1596   1.384       .  A
C1591      C1592   1.411       .  A
C1591      N1597   1.351       .  A
C1592      C1593   1.411       .  A
C1592      H1603   1.082       .  S
C1593      C1602   1.389       .  A
C1593      C1594   1.384       .  A
C1594      C1595   1.398       .  A
C1594      N1600   1.337       .  A
C1595      C1596   1.397       .  A
C1595      H1604   1.083       .  S
C1596      C1599   1.371       .  A
N1597      C1598   1.359       .  A
N1597      H1607   1.045       .  S
C1598      C1599   1.393       .  A
C1599      H1605   1.083       .  S
N1600      C1601   1.353       .  A
N1600      H1608   1.045       .  S
C1601      C1602   1.400       .  A
C1602      H1606   1.082       .  S
C1609      C1614   1.385       .  A
C1609      C1610   1.402       .  A
C1609      N1615   1.346       .  A
C1610      C1611   1.403       .  A
C1610      H1621   1.083       .  S
C1611      C1620   1.372       .  A
C1611      C1612   1.385       .  A
C1612      C1613   1.404       .  A
C1612      N1618   1.348       .  A
C1613      C1614   1.405       .  A
C1613      H1622   1.082       .  S
C1614      C1617   1.377       .  A
N1615      C1616   1.355       .  A
N1615      H1625   1.045       .  S
C1616      C1617   1.396       .  A
C1617      H1623   1.082       .  S
N1618      C1619   1.355       .  A
N1618      H1626   1.045       .  S
C1619      C1620   1.395       .  A
C1620      H1624   1.083       .  S
C1627      C1632   1.384       .  A
C1627      C1628   1.410       .  A
C1627      N1633   1.349       .  A
C1628      C1629   1.409       .  A
C1628      H1639   1.082       .  S
C1629      C1638   1.385       .  A
C1629      C1630   1.384       .  A
C1630      C1631   1.403       .  A
C1630      N1636   1.345       .  A
C1631      C1632   1.403       .  A
C1631      H1640   1.082       .  S
C1632      C1635   1.378       .  A
N1633      C1634   1.358       .  A
N1633      H1643   1.045       .  S
C1634      C1635   1.396       .  A
C1635      H1641   1.082       .  S
N1636      C1637   1.355       .  A
N1636      H1644   1.045       .  S
C1637      C1638   1.399       .  A
C1638      H1642   1.082       .  S
C1645      C1650   1.384       .  A
C1645      C1646   1.410       .  A
C1645      N1651   1.350       .  A
C1646      C1647   1.409       .  A
C1646      H1657   1.082       .  S
C1647      C1656   1.386       .  A
C1647      C1648   1.385       .  A
C1648      C1649   1.397       .  A
C1648      N1654   1.337       .  A
C1649      C1650   1.396       .  A
C1649      H1658   1.083       .  S
C1650      C1653   1.369       .  A
N1651      C1652   1.359       .  A
N1651      H1661   1.044       .  S
C1652      C1653   1.392       .  A
C1653      H1659   1.083       .  S
N1654      C1655   1.353       .  A
N1654      H1662   1.045       .  S
C1655      C1656   1.398       .  A
C1656      H1660   1.082       .  S
C1663      C1668   1.385       .  A
C1663      C1664   1.403       .  A
C1663      N1669   1.343       .  A
C1664      C1665   1.403       .  A
C1664      H1675   1.082       .  S
C1665      C1674   1.377       .  A
C1665      C1666   1.385       .  A
C1666      C1667   1.400       .  A
C1666      N1672   1.342       .  A
C1667      C1668   1.399       .  A
C1667      H1676   1.082       .  S
C1668      C1671   1.372       .  A
N1669      C1670   1.355       .  A
N1669      H1679   1.045       .  S
C1670      C1671   1.393       .  A
C1671      H1677   1.083       .  S
N1672      C1673   1.354       .  A
N1672      H1680   1.045       .  S
C1673      C1674   1.394       .  A
C1674      H1678   1.082       .  S
C1681      C1686   1.385       .  A
C1681      C1682   1.406       .  A
C1681      N1687   1.349       .  A
C1682      C1683   1.407       .  A
C1682      H1693   1.082       .  S
C1683      C1692   1.380       .  A
C1683      C1684   1.385       .  A
C1684      C1685   1.401       .  A
C1684      N1690   1.344       .  A
C1685      C1686   1.401       .  A
C1685      H1694   1.083       .  S
C1686      C1689   1.373       .  A
N1687      C1688   1.356       .  A
N1687      H1697   1.044       .  S
C1688      C1689   1.395       .  A
C1689      H1695   1.083       .  S
N1690      C1691   1.354       .  A
N1690      H1698   1.045       .  S
C1691      C1692   1.398       .  A
C1692      H1696   1.082       .  S
C1699      C1704   1.384       .  A
C1699      C1700   1.410       .  A
C1699      N1705   1.350       .  A
C1700      C1701   1.409       .  A
C1700      H1711   1.082       .  S
C1701      C1710   1.388       .  A
C1701      C1702   1.384       .  A
C1702      C1703   1.401       .  A
C1702      N1708   1.340       .  A
C1703      C1704   1.400       .  A
C1703      H1712   1.083       .  S
C1704      C1707   1.375       .  A
N1705      C1706   1.358       .  A
N1705      H1715   1.045       .  S
C1706      C1707   1.395       .  A
C1707      H1713   1.083       .  S
N1708      C1709   1.355       .  A
N1708      H1716   1.045       .  S
C1709      C1710   1.399       .  A
C1710      H1714   1.082       .  S
C1717      C1722   1.384       .  A
C1717      C1718   1.399       .  A
C1717      N1723   1.340       .  A
C1718      C1719   1.398       .  A
C1718      H1729   1.083       .  S
C1719      C1728   1.371       .  A
C1719      C1720   1.384       .  A
C1720      C1721   1.410       .  A
C1720      N1726   1.351       .  A
C1721      C1722   1.411       .  A
C1721      H1730   1.082       .  S
C1722      C1725   1.387       .  A
N1723      C1724   1.354       .  A
N1723      H1733   1.045       .  S
C1724      C1725   1.399       .  A
C1725      H1731   1.082       .  S
N1726      C1727   1.359       .  A
N1726      H1734   1.045       .  S
C1727      C1728   1.392       .  A
C1728      H1732   1.083       .  S
C1735      C1740   1.384       .  A
C1735      C1736   1.406       .  A
C1735      N1741   1.347       .  A
C1736      C1737   1.406       .  A
C1736      H1747   1.082       .  S
C1737      C1746   1.381   1_556  A
C1737      C1738   1.384       .  A
C1738      C1739   1.405       .  A
C1738      N1744   1.345   1_556  A
C1739      C1740   1.405       .  A
C1739      H1748   1.082       .  S
C1740      C1743   1.379       .  A
N1741      C1742   1.356       .  A
N1741      H1751   1.045       .  S
C1742      C1743   1.397       .  A
C1743      H1749   1.082       .  S
N1744      C1745   1.356       .  A
N1744      H1752   1.045       .  S
C1745      C1746   1.395       .  A
C1746      H1750   1.082       .  S
C1753      C1758   1.384       .  A
C1753      C1754   1.402       .  A
C1753      N1759   1.345       .  A
C1754      C1755   1.403       .  A
C1754      H1765   1.083       .  S
C1755      C1764   1.374       .  A
C1755      C1756   1.385       .  A
C1756      C1757   1.408       .  A
C1756      N1762   1.350       .  A
C1757      C1758   1.408       .  A
C1757      H1766   1.082       .  S
C1758      C1761   1.382       .  A
N1759      C1760   1.355       .  A
N1759      H1769   1.045       .  S
C1760      C1761   1.398       .  A
C1761      H1767   1.082       .  S
N1762      C1763   1.357       .  A
N1762      H1770   1.045       .  S
C1763      C1764   1.396       .  A
C1764      H1768   1.083       .  S
C1771      C1776   1.384       .  A
C1771      C1772   1.408       .  A
C1771      N1777   1.349   1_445  A
C1772      C1773   1.407       .  A
C1772      H1783   1.082   1_545  S
C1773      C1782   1.383       .  A
C1773      C1774   1.384       .  A
C1774      C1775   1.404       .  A
C1774      N1780   1.344       .  A
C1775      C1776   1.404       .  A
C1775      H1784   1.082       .  S
C1776      C1779   1.379   1_445  A
N1777      C1778   1.358       .  A
N1777      H1787   1.045       .  S
C1778      C1779   1.396       .  A
C1779      H1785   1.082       .  S
N1780      C1781   1.356       .  A
N1780      H1788   1.045       .  S
C1781      C1782   1.397       .  A
C1782      H1786   1.082       .  S
C1789      C1794   1.384       .  A
C1789      C1790   1.400       .  A
C1789      N1795   1.341       .  A
C1790      C1791   1.398       .  A
C1790      H1801   1.082       .  S
C1791      C1800   1.372       .  A
C1791      C1792   1.383       .  A
C1792      C1793   1.415       .  A
C1792      N1798   1.354       .  A
C1793      C1794   1.415       .  A
C1793      H1802   1.082   1_565  S
C1794      C1797   1.393   1_565  A
N1795      C1796   1.355   1_565  A
N1795      H1805   1.045       .  S
C1796      C1797   1.403       .  A
C1797      H1803   1.082       .  S
N1798      C1799   1.362       .  A
N1798      H1806   1.044       .  S
C1799      C1800   1.392       .  A
C1800      H1804   1.083       .  S
C1807      C1812   1.384       .  A
C1807      C1808   1.405       .  A
C1807      N1813   1.346       .  A
C1808      C1809   1.405       .  A
C1808      H1819   1.082       .  S
C1809      C1818   1.379       .  A
C1809      C1810   1.385       .  A
C1810      C1811   1.400       .  A
C1810      N1816   1.342       .  A
C1811      C1812   1.400       .  A
C1811      H1820   1.082       .  S
C1812      C1815   1.374       .  A
N1813      C1814   1.357       .  A
N1813      H1823   1.045       .  S
C1814      C1815   1.394       .  A
C1815      H1821   1.082       .  S
N1816      C1817   1.354       .  A
N1816      H1824   1.045       .  S
C1817      C1818   1.395       .  A
C1818      H1822   1.082       .  S
C1825      C1830   1.384       .  A
C1825      C1826   1.408       .  A
C1825      N1831   1.348   1_565  A
C1826      C1827   1.408       .  A
C1826      H1837   1.082   1_565  S
C1827      C1836   1.386       .  A
C1827      C1828   1.384       .  A
C1828      C1829   1.402       .  A
C1828      N1834   1.342       .  A
C1829      C1830   1.401       .  A
C1829      H1838   1.083       .  S
C1830      C1833   1.375       .  A
N1831      C1832   1.357       .  A
N1831      H1841   1.045       .  S
C1832      C1833   1.395   1_545  A
C1833      H1839   1.083       .  S
N1834      C1835   1.356       .  A
N1834      H1842   1.045       .  S
C1835      C1836   1.398       .  A
C1836      H1840   1.082       .  S
C1843      C1848   1.384       .  A
C1843      C1844   1.400       .  A
C1843      N1849   1.337       .  A
C1844      C1845   1.397       .  A
C1844      H1855   1.083       .  S
C1845      C1854   1.377       .  A
C1845      C1846   1.384       .  A
C1846      C1847   1.409       .  A
C1846      N1852   1.344       .  A
C1847      C1848   1.407       .  A
C1847      H1856   1.082       .  S
C1848      C1851   1.388       .  A
N1849      C1850   1.354       .  A
N1849      H1859   1.045       .  S
C1850      C1851   1.398       .  A
C1851      H1857   1.082       .  S
N1852      C1853   1.358       .  A
N1852      H1860   1.045       .  S
C1853      C1854   1.392       .  A
C1854      H1858   1.082       .  S
C1861      C1866   1.383       .  A
C1861      C1862   1.409       .  A
C1861      N1867   1.349   1_545  A
C1862      C1863   1.409       .  A
C1862      H1873   1.082       .  S
C1863      C1872   1.385       .  A
C1863      C1864   1.384       .  A
C1864      C1865   1.404       .  A
C1864      N1870   1.345       .  A
C1865      C1866   1.404       .  A
C1865      H1874   1.082       .  S
C1866      C1869   1.379   1_545  A
N1867      C1868   1.359       .  A
N1867      H1877   1.045       .  S
C1868      C1869   1.397       .  A
C1869      H1875   1.082       .  S
N1870      C1871   1.356       .  A
N1870      H1878   1.045       .  S
C1871      C1872   1.398       .  A
C1872      H1876   1.082       .  S
C1879      C1884   1.385       .  A
C1879      C1880   1.401       .  A
C1879      N1885   1.345       .  A
C1880      C1881   1.402       .  A
C1880      H1891   1.083       .  S
C1881      C1890   1.372       .  A
C1881      C1882   1.386       .  A
C1882      C1883   1.403       .  A
C1882      N1888   1.346       .  A
C1883      C1884   1.404       .  A
C1883      H1892   1.082       .  S
C1884      C1887   1.376       .  A
N1885      C1886   1.354       .  A
N1885      H1895   1.045       .  S
C1886      C1887   1.395       .  A
C1887      H1893   1.082       .  S
N1888      C1889   1.354       .  A
N1888      H1896   1.046       .  S
C1889      C1890   1.395       .  A
C1890      H1894   1.083       .  S
C1897      C1902   1.384       .  A
C1897      C1898   1.411       .  A
C1897      N1903   1.351       .  A
C1898      C1899   1.410       .  A
C1898      H1909   1.082       .  S
C1899      C1908   1.389   1_545  A
C1899      C1900   1.384       .  A
C1900      C1901   1.403       .  A
C1900      N1906   1.342       .  A
C1901      C1902   1.402       .  A
C1901      H1910   1.083       .  S
C1902      C1905   1.377       .  A
N1903      C1904   1.359       .  A
N1903      H1913   1.044       .  S
C1904      C1905   1.396       .  A
C1905      H1911   1.083       .  S
N1906      C1907   1.356   1_545  A
N1906      H1914   1.045       .  S
C1907      C1908   1.400       .  A
C1908      H1912   1.082       .  S
C1915      C1920   1.385       .  A
C1915      C1916   1.400       .  A
C1915      N1921   1.344       .  A
C1916      C1917   1.401       .  A
C1916      H1927   1.083       .  S
C1917      C1926   1.370       .  A
C1917      C1918   1.385       .  A
C1918      C1919   1.404       .  A
C1918      N1924   1.348       .  A
C1919      C1920   1.405       .  A
C1919      H1928   1.082       .  S
C1920      C1923   1.376       .  A
N1921      C1922   1.354       .  A
N1921      H1931   1.045       .  S
C1922      C1923   1.395       .  A
C1923      H1929   1.082       .  S
N1924      C1925   1.355       .  A
N1924      H1932   1.045       .  S
C1925      C1926   1.394       .  A
C1926      H1930   1.083       .  S
C1933      C1938   1.384       .  A
C1933      C1934   1.399       .  A
C1933      N1939   1.338       .  A
C1934      C1935   1.399       .  A
C1934      H1945   1.083       .  S
C1935      C1944   1.374       .  A
C1935      C1936   1.384       .  A
C1936      C1937   1.413       .  A
C1936      N1942   1.352   1_545  A
C1937      C1938   1.412       .  A
C1937      H1946   1.082       .  S
C1938      C1941   1.390       .  A
N1939      C1940   1.354       .  A
N1939      H1949   1.045       .  S
C1940      C1941   1.400       .  A
C1941      H1947   1.082       .  S
N1942      C1943   1.361   1_565  A
N1942      H1950   1.044       .  S
C1943      C1944   1.394       .  A
C1944      H1948   1.083       .  S
C1951      C1956   1.385       .  A
C1951      C1952   1.401       .  A
C1951      N1957   1.341       .  A
C1952      C1953   1.400       .  A
C1952      H1963   1.082       .  S
C1953      C1962   1.375       .  A
C1953      C1954   1.384       .  A
C1954      C1955   1.407       .  A
C1954      N1960   1.346       .  A
C1955      C1956   1.406       .  A
C1955      H1964   1.082       .  S
C1956      C1959   1.383       .  A
N1957      C1958   1.354       .  A
N1957      H1967   1.045       .  S
C1958      C1959   1.397       .  A
C1959      H1965   1.082       .  S
N1960      C1961   1.356       .  A
N1960      H1968   1.045       .  S
C1961      C1962   1.393       .  A
C1962      H1966   1.083       .  S
C1969      C1974   1.384       .  A
C1969      C1970   1.409       .  A
C1969      N1975   1.346       .  A
C1970      C1971   1.407       .  A
C1970      H1981   1.082       .  S
C1971      C1980   1.387       .  A
C1971      C1972   1.384       .  A
C1972      C1973   1.403       .  A
C1972      N1978   1.341       .  A
C1973      C1974   1.400       .  A
C1973      H1982   1.082       .  S
C1974      C1977   1.380       .  A
N1975      C1976   1.358       .  A
N1975      H1985   1.046       .  S
C1976      C1977   1.393       .  A
C1977      H1983   1.082       .  S
N1978      C1979   1.356       .  A
N1978      H1986   1.045       .  S
C1979      C1980   1.397       .  A
C1980      H1984   1.082       .  S
C1987      C1992   1.384       .  A
C1987      C1988   1.407       .  A
C1987      N1993   1.344       .  A
C1988      C1989   1.406       .  A
C1988      H1999   1.082       .  S
C1989      C1998   1.386       .  A
C1989      C1990   1.384       .  A
C1990      C1991   1.402       .  A
C1990      N1996   1.339       .  A
C1991      C1992   1.399       .  A
C1991      H2000   1.083       .  S
C1992      C1995   1.377       .  A
N1993      C1994   1.357       .  A
N1993      H2003   1.046       .  S
C1994      C1995   1.393       .  A
C1995      H2001   1.083       .  S
N1996      C1997   1.356       .  A
N1996      H2004   1.045       .  S
C1997      C1998   1.398       .  A
C1998      H2002   1.082       .  S
C2005      C2010   1.384       .  A
C2005      C2006   1.402       .  A
C2005      N2011   1.341       .  A
C2006      C2007   1.401       .  A
C2006      H2017   1.082       .  S
C2007      C2016   1.378       .  A
C2007      C2008   1.384       .  A
C2008      C2009   1.407       .  A
C2008      N2014   1.346       .  A
C2009      C2010   1.406       .  A
C2009      H2018   1.082       .  S
C2010      C2013   1.383       .  A
N2011      C2012   1.354       .  A
N2011      H2021   1.045       .  S
C2012      C2013   1.397       .  A
C2013      H2019   1.082       .  S
N2014      C2015   1.357       .  A
N2014      H2022   1.045       .  S
C2015      C2016   1.395       .  A
C2016      H2020   1.082       .  S
C2023      C2028   1.385       .  A
C2023      C2024   1.405       .  A
C2023      N2029   1.348       .  A
C2024      C2025   1.405       .  A
C2024      H2035   1.082       .  S
C2025      C2034   1.380       .  A
C2025      C2026   1.385       .  A
C2026      C2027   1.401       .  A
C2026      N2032   1.344       .  A
C2027      C2028   1.402       .  A
C2027      H2036   1.083       .  S
C2028      C2031   1.374       .  A
N2029      C2030   1.355       .  A
N2029      H2039   1.044       .  S
C2030      C2031   1.395       .  A
C2031      H2037   1.083       .  S
N2032      C2033   1.354       .  A
N2032      H2040   1.045       .  S
C2033      C2034   1.397       .  A
C2034      H2038   1.082       .  S
C2041      C2046   1.385       .  A
C2041      C2042   1.400       .  A
C2041      N2047   1.346       .  A
C2042      C2043   1.402       .  A
C2042      H2053   1.082       .  S
C2043      C2052   1.370       .  A
C2043      C2044   1.385       .  A
C2044      C2045   1.407       .  A
C2044      N2050   1.351       .  A
C2045      C2046   1.408       .  A
C2045      H2054   1.082       .  S
C2046      C2049   1.379       .  A
N2047      C2048   1.355       .  A
N2047      H2057   1.045       .  S
C2048      C2049   1.397       .  A
C2049      H2055   1.082       .  S
N2050      C2051   1.358       .  A
N2050      H2058   1.045       .  S
C2051      C2052   1.394       .  A
C2052      H2056   1.083       .  S
C2059      C2064   1.384       .  A
C2059      C2060   1.409       .  A
C2059      N2065   1.349       .  A
C2060      C2061   1.408       .  A
C2060      H2071   1.082       .  S
C2061      C2070   1.386       .  A
C2061      C2062   1.384       .  A
C2062      C2063   1.400       .  A
C2062      N2068   1.339       .  A
C2063      C2064   1.399       .  A
C2063      H2072   1.083       .  S
C2064      C2067   1.372       .  A
N2065      C2066   1.357       .  A
N2065      H2075   1.045       .  S
C2066      C2067   1.394       .  A
C2067      H2073   1.083       .  S
N2068      C2069   1.355       .  A
N2068      H2076   1.045       .  S
C2069      C2070   1.398       .  A
C2070      H2074   1.082       .  S
C2077      C2082   1.384       .  A
C2077      C2078   1.407   1_565  A
C2077      N2083   1.347       .  A
C2078      C2079   1.406       .  A
C2078      H2089   1.082       .  S
C2079      C2088   1.382       .  A
C2079      C2080   1.384       .  A
C2080      C2081   1.405       .  A
C2080      N2086   1.345       .  A
C2081      C2082   1.404   1_545  A
C2081      H2090   1.082       .  S
C2082      C2085   1.379       .  A
N2083      C2084   1.357       .  A
N2083      H2093   1.046       .  S
C2084      C2085   1.397       .  A
C2085      H2091   1.082       .  S
N2086      C2087   1.356       .  A
N2086      H2094   1.045       .  S
C2087      C2088   1.396       .  A
C2088      H2092   1.082       .  S
C2095      C2100   1.385       .  A
C2095      C2096   1.402       .  A
C2095      N2101   1.347       .  A
C2096      C2097   1.404       .  A
C2096      H2107   1.082       .  S
C2097      C2106   1.373       .  A
C2097      C2098   1.385       .  A
C2098      C2099   1.407       .  A
C2098      N2104   1.351       .  A
C2099      C2100   1.408       .  A
C2099      H2108   1.082       .  S
C2100      C2103   1.380       .  A
N2101      C2102   1.356       .  A
N2101      H2111   1.045       .  S
C2102      C2103   1.398       .  A
C2103      H2109   1.082       .  S
N2104      C2105   1.357       .  A
N2104      H2112   1.045       .  S
C2105      C2106   1.395       .  A
C2106      H2110   1.083       .  S
C2113      C2118   1.386       .  A
C2113      C2114   1.396       .  A
C2113      N2119   1.342       .  A
C2114      C2115   1.397       .  A
C2114      H2125   1.083       .  S
C2115      C2124   1.366       .  A
C2115      C2116   1.385       .  A
C2116      C2117   1.405       .  A
C2116      N2122   1.350       .  A
C2117      C2118   1.406       .  A
C2117      H2126   1.082       .  S
C2118      C2121   1.377       .  A
N2119      C2120   1.352       .  A
N2119      H2129   1.044       .  S
C2120      C2121   1.396       .  A
C2121      H2127   1.082       .  S
N2122      C2123   1.357       .  A
N2122      H2130   1.045       .  S
C2123      C2124   1.391       .  A
C2124      H2128   1.083       .  S
C2131      C2136   1.385       .  A
C2131      C2132   1.399       .  A
C2131      N2137   1.339       .  A
C2132      C2133   1.398       .  A
C2132      H2143   1.083       .  S
C2133      C2142   1.372       .  A
C2133      C2134   1.384       .  A
C2134      C2135   1.409       .  A
C2134      N2140   1.349       .  A
C2135      C2136   1.409       .  A
C2135      H2144   1.082       .  S
C2136      C2139   1.386       .  A
N2137      C2138   1.354       .  A
N2137      H2147   1.045       .  S
C2138      C2139   1.398       .  A
C2139      H2145   1.082       .  S
N2140      C2141   1.358       .  A
N2140      H2148   1.045       .  S
C2141      C2142   1.393       .  A
C2142      H2146   1.083       .  S
C2149      C2154   1.384       .  A
C2149      C2150   1.405       .  A
C2149      N2155   1.342       .  A
C2150      C2151   1.402       .  A
C2150      H2161   1.082       .  S
C2151      C2160   1.383       .  A
C2151      C2152   1.385       .  A
C2152      C2153   1.404       .  A
C2152      N2158   1.339       .  A
C2153      C2154   1.401       .  A
C2153      H2162   1.083       .  S
C2154      C2157   1.381       .  A
N2155      C2156   1.356       .  A
N2155      H2165   1.045       .  S
C2156      C2157   1.395       .  A
C2157      H2163   1.082       .  S
N2158      C2159   1.356       .  A
N2158      H2166   1.045       .  S
C2159      C2160   1.393       .  A
C2160      H2164   1.082       .  S
C2167      C2172   1.384       .  A
C2167      C2168   1.405       .  A
C2167      N2173   1.346       .  A
C2168      C2169   1.404       .  A
C2168      H2179   1.082       .  S
C2169      C2178   1.378       .  A
C2169      C2170   1.385       .  A
C2170      C2171   1.399       .  A
C2170      N2176   1.341       .  A
C2171      C2172   1.399       .  A
C2171      H2180   1.082       .  S
C2172      C2175   1.372       .  A
N2173      C2174   1.357       .  A
N2173      H2183   1.045       .  S
C2174      C2175   1.393       .  A
C2175      H2181   1.082       .  S
N2176      C2177   1.354       .  A
N2176      H2184   1.045       .  S
C2177      C2178   1.395       .  A
C2178      H2182   1.082       .  S
C2185      C2190   1.385       .  A
C2185      C2186   1.401       .  A
C2185      N2191   1.343       .  A
C2186      C2187   1.401       .  A
C2186      H2197   1.082       .  S
C2187      C2196   1.373       .  A
C2187      C2188   1.385       .  A
C2188      C2189   1.406       .  A
C2188      N2194   1.349       .  A
C2189      C2190   1.407       .  A
C2189      H2198   1.082       .  S
C2190      C2193   1.379       .  A
N2191      C2192   1.353       .  A
N2191      H2201   1.044       .  S
C2192      C2193   1.397       .  A
C2193      H2199   1.083       .  S
N2194      C2195   1.356       .  A
N2194      H2202   1.045       .  S
C2195      C2196   1.395       .  A
C2196      H2200   1.083       .  S
C2203      C2208   1.384       .  A
C2203      C2204   1.398       .  A
C2203      N2209   1.340       .  A
C2204      C2205   1.397       .  A
C2204      H2215   1.083       .  S
C2205      C2214   1.370       .  A
C2205      C2206   1.384       .  A
C2206      C2207   1.412       .  A
C2206      N2212   1.352       .  A
C2207      C2208   1.412       .  A
C2207      H2216   1.082       .  S
C2208      C2211   1.389       .  A
N2209      C2210   1.354       .  A
N2209      H2219   1.045       .  S
C2210      C2211   1.400       .  A
C2211      H2217   1.082       .  S
N2212      C2213   1.360       .  A
N2212      H2220   1.045       .  S
C2213      C2214   1.392       .  A
C2214      H2218   1.083       .  S
C2221      C2226   1.384       .  A
C2221      C2222   1.396       .  A
C2221      N2227   1.336       .  A
C2222      C2223   1.394       .  A
C2222      H2233   1.083       .  S
C2223      C2232   1.370       .  A
C2223      C2224   1.384       .  A
C2224      C2225   1.414       .  A
C2224      N2230   1.351       .  A
C2225      C2226   1.413       .  A
C2225      H2234   1.082       .  S
C2226      C2229   1.392       .  A
N2227      C2228   1.352       .  A
N2227      H2237   1.045       .  S
C2228      C2229   1.403       .  A
C2229      H2235   1.082       .  S
N2230      C2231   1.360       .  A
N2230      H2238   1.045       .  S
C2231      C2232   1.391       .  A
C2232      H2236   1.083       .  S
C2239      C2244   1.384       .  A
C2239      C2240   1.407       .  A
C2239      N2245   1.346       .  A
C2240      C2241   1.406       .  A
C2240      H2251   1.082       .  S
C2241      C2250   1.383       .  A
C2241      C2242   1.384       .  A
C2242      C2243   1.404       .  A
C2242      N2248   1.343       .  A
C2243      C2244   1.403       .  A
C2243      H2252   1.082       .  S
C2244      C2247   1.379       .  A
N2245      C2246   1.357       .  A
N2245      H2255   1.045       .  S
C2246      C2247   1.396       .  A
C2247      H2253   1.082       .  S
N2248      C2249   1.355       .  A
N2248      H2256   1.045       .  S
C2249      C2250   1.397       .  A
C2250      H2254   1.082       .  S
C2257      C2262   1.384       .  A
C2257      C2258   1.408       .  A
C2257      N2263   1.344       .  A
C2258      C2259   1.406       .  A
C2258      H2269   1.082       .  S
C2259      C2268   1.386       .  A
C2259      C2260   1.385       .  A
C2260      C2261   1.400       .  A
C2260      N2266   1.338       .  A
C2261      C2262   1.397       .  A
C2261      H2270   1.083       .  S
C2262      C2265   1.376       .  A
N2263      C2264   1.357       .  A
N2263      H2273   1.045       .  S
C2264      C2265   1.391       .  A
C2265      H2271   1.082       .  S
N2266      C2267   1.354       .  A
N2266      H2274   1.045       .  S
C2267      C2268   1.397       .  A
C2268      H2272   1.082       .  S
C2275      C2280   1.385       .  A
C2275      C2276   1.404       .  A
C2275      N2281   1.348       .  A
C2276      C2277   1.405       .  A
C2276      H2287   1.082       .  S
C2277      C2286   1.377       .  A
C2277      C2278   1.384       .  A
C2278      C2279   1.402       .  A
C2278      N2284   1.346       .  A
C2279      C2280   1.403       .  A
C2279      H2288   1.083       .  S
C2280      C2283   1.374       .  A
N2281      C2282   1.355       .  A
N2281      H2291   1.045       .  S
C2282      C2283   1.396       .  A
C2283      H2289   1.083       .  S
N2284      C2285   1.355       .  A
N2284      H2292   1.044       .  S
C2285      C2286   1.396       .  A
C2286      H2290   1.082       .  S
C2293      C2298   1.385       .  A
C2293      C2294   1.404       .  A
C2293      N2299   1.345       .  A
C2294      C2295   1.403       .  A
C2294      H2305   1.082       .  S
C2295      C2304   1.378       .  A
C2295      C2296   1.385       .  A
C2296      C2297   1.401       .  A
C2296      N2302   1.342       .  A
C2297      C2298   1.401       .  A
C2297      H2306   1.082       .  S
C2298      C2301   1.375       .  A
N2299      C2300   1.355       .  A
N2299      H2309   1.046       .  S
C2300      C2301   1.393       .  A
C2301      H2307   1.082       .  S
N2302      C2303   1.355       .  A
N2302      H2310   1.045       .  S
C2303      C2304   1.394       .  A
C2304      H2308   1.082       .  S
C2311      C2316   1.384       .  A
C2311      C2312   1.411       .  A
C2311      N2317   1.351   1_545  A
C2312      C2313   1.411       .  A
C2312      H2323   1.082   1_545  S
C2313      C2322   1.388       .  A
C2313      C2314   1.384       .  A
C2314      C2315   1.397       .  A
C2314      N2320   1.338       .  A
C2315      C2316   1.396       .  A
C2315      H2324   1.083       .  S
C2316      C2319   1.370       .  A
N2317      C2318   1.359       .  A
N2317      H2327   1.044       .  S
C2318      C2319   1.392   1_565  A
C2319      H2325   1.083       .  S
N2320      C2321   1.353       .  A
N2320      H2328   1.045       .  S
C2321      C2322   1.400       .  A
C2322      H2326   1.082       .  S
C2329      C2334   1.384       .  A
C2329      C2330   1.407       .  A
C2329      N2335   1.346       .  A
C2330      C2331   1.407   1_545  A
C2330      H2341   1.083       .  S
C2331      C2340   1.381       .  A
C2331      C2332   1.385   1_565  A
C2332      C2333   1.403       .  A
C2332      N2338   1.345   1_545  A
C2333      C2334   1.402       .  A
C2333      H2342   1.082       .  S
C2334      C2337   1.378       .  A
N2335      C2336   1.358       .  A
N2335      H2345   1.045       .  S
C2336      C2337   1.394       .  A
C2337      H2343   1.082       .  S
N2338      C2339   1.355       .  A
N2338      H2346   1.045       .  S
C2339      C2340   1.398       .  A
C2340      H2344   1.082       .  S
C2347      C2352   1.385       .  A
C2347      C2348   1.408       .  A
C2347      N2353   1.350       .  A
C2348      C2349   1.409       .  A
C2348      H2359   1.082       .  S
C2349      C2358   1.381       .  A
C2349      C2350   1.385       .  A
C2350      C2351   1.402       .  A
C2350      N2356   1.347       .  A
C2351      C2352   1.403       .  A
C2351      H2360   1.082       .  S
C2352      C2355   1.374       .  A
N2353      C2354   1.357       .  A
N2353      H2363   1.045       .  S
C2354      C2355   1.395       .  A
C2355      H2361   1.083       .  S
N2356      C2357   1.355       .  A
N2356      H2364   1.045       .  S
C2357      C2358   1.399       .  A
C2358      H2362   1.082       .  S
C2365      C2370   1.384       .  A
C2365      C2366   1.412       .  A
C2365      N2371   1.352       .  A
C2366      C2367   1.412   1_565  A
C2366      H2377   1.082   1_565  S
C2367      C2376   1.389       .  A
C2367      C2368   1.384   1_545  A
C2368      C2369   1.400       .  A
C2368      N2374   1.340       .  A
C2369      C2370   1.399       .  A
C2369      H2378   1.083       .  S
C2370      C2373   1.374       .  A
N2371      C2372   1.360       .  A
N2371      H2381   1.043       .  S
C2372      C2373   1.394       .  A
C2373      H2379   1.083       .  S
N2374      C2375   1.354   1_565  A
N2374      H2382   1.047       .  S
C2375      C2376   1.400       .  A
C2376      H2380   1.082       .  S
C2383      C2388   1.385       .  A
C2383      C2384   1.407       .  A
C2383      N2389   1.348       .  A
C2384      C2385   1.407       .  A
C2384      H2395   1.082       .  S
C2385      C2394   1.380       .  A
C2385      C2386   1.384       .  A
C2386      C2387   1.405       .  A
C2386      N2392   1.348       .  A
C2387      C2388   1.406       .  A
C2387      H2396   1.082       .  S
C2388      C2391   1.379       .  A
N2389      C2390   1.357       .  A
N2389      H2399   1.044       .  S
C2390      C2391   1.397       .  A
C2391      H2397   1.083       .  S
N2392      C2393   1.356       .  A
N2392      H2400   1.044       .  S
C2393      C2394   1.398       .  A
C2394      H2398   1.082       .  S
C2401      C2406   1.384       .  A
C2401      C2402   1.406       .  A
C2401      N2407   1.345       .  A
C2402      C2403   1.405       .  A
C2402      H2413   1.082       .  S
C2403      C2412   1.384       .  A
C2403      C2404   1.384       .  A
C2404      C2405   1.403       .  A
C2404      N2410   1.341       .  A
C2405      C2406   1.401       .  A
C2405      H2414   1.082       .  S
C2406      C2409   1.378       .  A
N2407      C2408   1.356       .  A
N2407      H2417   1.045       .  S
C2408      C2409   1.395       .  A
C2409      H2415   1.083       .  S
N2410      C2411   1.355       .  A
N2410      H2418   1.045       .  S
C2411      C2412   1.397       .  A
C2412      H2416   1.082       .  S
C2419      C2424   1.384       .  A
C2419      C2420   1.412       .  A
C2419      N2425   1.351       .  A
C2420      C2421   1.411       .  A
C2420      H2431   1.082       .  S
C2421      C2430   1.390   1_545  A
C2421      C2422   1.384       .  A
C2422      C2423   1.399       .  A
C2422      N2428   1.339       .  A
C2423      C2424   1.398       .  A
C2423      H2432   1.083       .  S
C2424      C2427   1.373       .  A
N2425      C2426   1.359       .  A
N2425      H2435   1.045       .  S
C2426      C2427   1.393       .  A
C2427      H2433   1.083       .  S
N2428      C2429   1.354   1_545  A
N2428      H2436   1.045       .  S
C2429      C2430   1.400       .  A
C2430      H2434   1.082       .  S
C2437      C2442   1.385       .  A
C2437      C2438   1.406       .  A
C2437      N2443   1.349       .  A
C2438      C2439   1.407       .  A
C2438      H2449   1.082       .  S
C2439      C2448   1.379       .  A
C2439      C2440   1.386       .  A
C2440      C2441   1.398       .  A
C2440      N2446   1.342       .  A
C2441      C2442   1.399       .  A
C2441      H2450   1.083       .  S
C2442      C2445   1.369       .  A
N2443      C2444   1.356       .  A
N2443      H2453   1.045       .  S
C2444      C2445   1.393       .  A
C2445      H2451   1.083       .  S
N2446      C2447   1.352       .  A
N2446      H2454   1.045       .  S
C2447      C2448   1.397       .  A
C2448      H2452   1.082       .  S
C2455      C2460   1.384       .  A
C2455      C2456   1.398       .  A
C2455      N2461   1.339       .  A
C2456      C2457   1.397       .  A
C2456      H2467   1.083       .  S
C2457      C2466   1.369       .  A
C2457      C2458   1.384       .  A
C2458      C2459   1.411       .  A
C2458      N2464   1.352   1_565  A
C2459      C2460   1.411       .  A
C2459      H2468   1.082   1_565  S
C2460      C2463   1.388       .  A
N2461      C2462   1.354       .  A
N2461      H2471   1.045       .  S
C2462      C2463   1.400       .  A
C2463      H2469   1.082       .  S
N2464      C2465   1.359       .  A
N2464      H2472   1.045       .  S
C2465      C2466   1.392   1_545  A
C2466      H2470   1.083       .  S
C2473      C2478   1.384       .  A
C2473      C2474   1.407       .  A
C2473      N2479   1.347   1_455  A
C2474      C2475   1.406   1_545  A
C2474      H2485   1.082       .  S
C2475      C2484   1.382       .  A
C2475      C2476   1.384       .  A
C2476      C2477   1.403   1_565  A
C2476      N2482   1.343       .  A
C2477      C2478   1.403       .  A
C2477      H2486   1.082       .  S
C2478      C2481   1.378   1_455  A
N2479      C2480   1.358       .  A
N2479      H2489   1.044       .  S
C2480      C2481   1.396       .  A
C2481      H2487   1.082       .  S
N2482      C2483   1.355       .  A
N2482      H2490   1.045       .  S
C2483      C2484   1.396       .  A
C2484      H2488   1.082       .  S
C2491      C2496   1.384       .  A
C2491      C2492   1.407       .  A
C2491      N2497   1.344       .  A
C2492      C2493   1.405       .  A
C2492      H2503   1.082       .  S
C2493      C2502   1.385       .  A
C2493      C2494   1.384       .  A
C2494      C2495   1.403       .  A
C2494      N2500   1.340       .  A
C2495      C2496   1.400       .  A
C2495      H2504   1.082       .  S
C2496      C2499   1.380       .  A
N2497      C2498   1.357       .  A
N2497      H2507   1.045       .  S
C2498      C2499   1.394       .  A
C2499      H2505   1.082   1_655  S
N2500      C2501   1.355       .  A
N2500      H2508   1.045       .  S
C2501      C2502   1.396       .  A
C2502      H2506   1.082       .  S
C2509      C2514   1.384       .  A
C2509      C2510   1.409       .  A
C2509      N2515   1.346       .  A
C2510      C2511   1.408       .  A
C2510      H2521   1.082       .  S
C2511      C2520   1.387       .  A
C2511      C2512   1.385       .  A
C2512      C2513   1.398       .  A
C2512      N2518   1.337       .  A
C2513      C2514   1.395       .  A
C2513      H2522   1.083       .  S
C2514      C2517   1.373       .  A
N2515      C2516   1.359       .  A
N2515      H2525   1.046       .  S
C2516      C2517   1.389       .  A
C2517      H2523   1.082   1_554  S
N2518      C2519   1.353       .  A
N2518      H2526   1.045       .  S
C2519      C2520   1.398       .  A
C2520      H2524   1.082       .  S
C2527      C2532   1.384       .  A
C2527      C2528   1.408       .  A
C2527      N2533   1.346       .  A
C2528      C2529   1.406       .  A
C2528      H2539   1.082       .  S
C2529      C2538   1.385       .  A
C2529      C2530   1.384       .  A
C2530      C2531   1.403       .  A
C2530      N2536   1.342       .  A
C2531      C2532   1.402       .  A
C2531      H2540   1.082       .  S
C2532      C2535   1.379       .  A
N2533      C2534   1.356       .  A
N2533      H2543   1.046       .  S
C2534      C2535   1.395       .  A
C2535      H2541   1.083       .  S
N2536      C2537   1.355       .  A
N2536      H2544   1.045       .  S
C2537      C2538   1.398       .  A
C2538      H2542   1.082       .  S
C2545      C2550   1.386       .  A
C2545      C2546   1.405       .  A
C2545      N2551   1.348       .  A
C2546      C2547   1.405       .  A
C2546      H2557   1.082       .  S
C2547      C2556   1.378       .  A
C2547      C2548   1.385       .  A
C2548      C2549   1.401       .  A
C2548      N2554   1.344       .  A
C2549      C2550   1.402       .  A
C2549      H2558   1.083       .  S
C2550      C2553   1.373       .  A
N2551      C2552   1.355       .  A
N2551      H2561   1.045       .  S
C2552      C2553   1.395       .  A
C2553      H2559   1.083       .  S
N2554      C2555   1.354       .  A
N2554      H2562   1.045       .  S
C2555      C2556   1.395       .  A
C2556      H2560   1.082       .  S
C2563      C2568   1.384       .  A
C2563      C2564   1.404       .  A
C2563      N2569   1.341       .  A
C2564      C2565   1.402       .  A
C2564      H2575   1.082       .  S
C2565      C2574   1.383       .  A
C2565      C2566   1.384       .  A
C2566      C2567   1.406       .  A
C2566      N2572   1.342       .  A
C2567      C2568   1.403       .  A
C2567      H2576   1.082       .  S
C2568      C2571   1.383       .  A
N2569      C2570   1.355       .  A
N2569      H2579   1.045       .  S
C2570      C2571   1.396       .  A
C2571      H2577   1.082       .  S
N2572      C2573   1.358       .  A
N2572      H2580   1.044       .  S
C2573      C2574   1.394       .  A
C2574      H2578   1.082       .  S
C2581      C2586   1.383       .  A
C2581      C2582   1.417       .  A
C2581      N2587   1.355       .  A
C2582      C2583   1.418       .  A
C2582      H2593   1.082       .  S
C2583      C2592   1.396       .  A
C2583      C2584   1.384       .  A
C2584      C2585   1.395       .  A
C2584      N2590   1.336       .  A
C2585      C2586   1.393       .  A
C2585      H2594   1.083       .  S
C2586      C2589   1.368       .  A
N2587      C2588   1.363       .  A
N2587      H2597   1.045       .  S
C2588      C2589   1.390       .  A
C2589      H2595   1.083       .  S
N2590      C2591   1.352       .  A
N2590      H2598   1.045       .  S
C2591      C2592   1.406       .  A
C2592      H2596   1.082       .  S
C2599      C2604   1.385       .  A
C2599      C2600   1.403       .  A
C2599      N2605   1.347       .  A
C2600      C2601   1.404       .  A
C2600      H2611   1.082       .  S
C2601      C2610   1.376       .  A
C2601      C2602   1.385       .  A
C2602      C2603   1.401       .  A
C2602      N2608   1.344       .  A
C2603      C2604   1.401       .  A
C2603      H2612   1.083       .  S
C2604      C2607   1.373       .  A
N2605      C2606   1.355       .  A
N2605      H2615   1.044       .  S
C2606      C2607   1.395       .  A
C2607      H2613   1.083       .  S
N2608      C2609   1.354       .  A
N2608      H2616   1.045       .  S
C2609      C2610   1.395       .  A
C2610      H2614   1.082       .  S
C2617      C2622   1.384       .  A
C2617      C2618   1.406       .  A
C2617      N2623   1.342       .  A
C2618      C2619   1.402       .  A
C2618      H2629   1.082       .  S
C2619      C2628   1.384       .  A
C2619      C2620   1.384       .  A
C2620      C2621   1.405       .  A
C2620      N2626   1.340       .  A
C2621      C2622   1.403       .  A
C2621      H2630   1.083       .  S
C2622      C2625   1.383       .  A
N2623      C2624   1.356       .  A
N2623      H2633   1.046       .  S
C2624      C2625   1.396       .  A
C2625      H2631   1.082       .  S
N2626      C2627   1.357       .  A
N2626      H2634   1.045       .  S
C2627      C2628   1.394       .  A
C2628      H2632   1.082       .  S
C2635      C2640   1.385       .  A
C2635      C2636   1.400       .  A
C2635      N2641   1.342       .  A
C2636      C2637   1.399       .  A
C2636      H2647   1.082       .  S
C2637      C2646   1.373       .  A
C2637      C2638   1.384       .  A
C2638      C2639   1.407       .  A
C2638      N2644   1.347       .  A
C2639      C2640   1.407       .  A
C2639      H2648   1.082       .  S
C2640      C2643   1.381       .  A
N2641      C2642   1.354       .  A
N2641      H2651   1.044       .  S
C2642      C2643   1.396       .  A
C2643      H2649   1.082       .  S
N2644      C2645   1.357       .  A
N2644      H2652   1.045       .  S
C2645      C2646   1.393       .  A
C2646      H2650   1.082       .  S
C2653      C2658   1.385       .  A
C2653      C2654   1.407       .  A
C2653      N2659   1.344       .  A
C2654      C2655   1.404       .  A
C2654      H2665   1.082       .  S
C2655      C2664   1.383       .  A
C2655      C2656   1.384       .  A
C2656      C2657   1.405       .  A
C2656      N2662   1.344       .  A
C2657      C2658   1.404       .  A
C2657      H2666   1.082       .  S
C2658      C2661   1.382       .  A
N2659      C2660   1.357       .  A
N2659      H2669   1.044       .  S
C2660      C2661   1.396       .  A
C2661      H2667   1.082       .  S
N2662      C2663   1.357       .  A
N2662      H2670   1.045       .  S
C2663      C2664   1.396       .  A
C2664      H2668   1.082       .  S
C2671      C2676   1.385       .  A
C2671      C2672   1.402       .  A
C2671      N2677   1.346       .  A
C2672      C2673   1.403       .  A
C2672      H2683   1.082       .  S
C2673      C2682   1.374       .  A
C2673      C2674   1.384       .  A
C2674      C2675   1.409       .  A
C2674      N2680   1.352       .  A
C2675      C2676   1.410       .  A
C2675      H2684   1.082       .  S
C2676      C2679   1.382       .  A
N2677      C2678   1.355       .  A
N2677      H2687   1.045   1_554  S
C2678      C2679   1.399       .  A
C2679      H2685   1.082       .  S
N2680      C2681   1.358       .  A
N2680      H2688   1.044       .  S
C2681      C2682   1.395       .  A
C2682      H2686   1.083       .  S
C2689      C2694   1.384       .  A
C2689      C2690   1.399       .  A
C2689      N2695   1.339       .  A
C2690      C2691   1.399       .  A
C2690      H2701   1.083       .  S
C2691      C2700   1.373       .  A
C2691      C2692   1.384       .  A
C2692      C2693   1.410       .  A
C2692      N2698   1.350       .  A
C2693      C2694   1.409       .  A
C2693      H2702   1.082       .  S
C2694      C2697   1.387       .  A
N2695      C2696   1.354       .  A
N2695      H2705   1.045       .  S
C2696      C2697   1.399       .  A
C2697      H2703   1.082       .  S
N2698      C2699   1.358       .  A
N2698      H2706   1.045       .  S
C2699      C2700   1.394       .  A
C2700      H2704   1.083       .  S
C2707      C2712   1.384       .  A
C2707      C2708   1.405       .  A
C2707      N2713   1.340       .  A
C2708      C2709   1.402       .  A
C2708      H2719   1.083       .  S
C2709      C2718   1.382       .  A
C2709      C2710   1.384       .  A
C2710      C2711   1.405       .  A
C2710      N2716   1.342       .  A
C2711      C2712   1.403       .  A
C2711      H2720   1.082       .  S
C2712      C2715   1.383       .  A
N2713      C2714   1.356       .  A
N2713      H2723   1.045       .  S
C2714      C2715   1.395       .  A
C2715      H2721   1.082       .  S
N2716      C2717   1.356       .  A
N2716      H2724   1.045       .  S
C2717      C2718   1.396       .  A
C2718      H2722   1.082       .  S
C2725      C2730   1.385       .  A
C2725      C2726   1.403   1_565  A
C2725      N2731   1.343       .  A
C2726      C2727   1.402       .  A
C2726      H2737   1.082       .  S
C2727      C2736   1.378       .  A
C2727      C2728   1.384       .  A
C2728      C2729   1.405       .  A
C2728      N2734   1.344       .  A
C2729      C2730   1.404   1_545  A
C2729      H2738   1.082       .  S
C2730      C2733   1.379       .  A
N2731      C2732   1.354       .  A
N2731      H2741   1.045       .  S
C2732      C2733   1.396       .  A
C2733      H2739   1.083       .  S
N2734      C2735   1.356       .  A
N2734      H2742   1.045       .  S
C2735      C2736   1.394       .  A
C2736      H2740   1.082       .  S
C2743      C2748   1.385       .  A
C2743      C2744   1.408       .  A
C2743      N2749   1.350       .  A
C2744      C2745   1.408       .  A
C2744      H2755   1.082       .  S
C2745      C2754   1.381       .  A
C2745      C2746   1.384       .  A
C2746      C2747   1.402       .  A
C2746      N2752   1.346       .  A
C2747      C2748   1.404       .  A
C2747      H2756   1.082       .  S
C2748      C2751   1.375       .  A
N2749      C2750   1.357       .  A
N2749      H2759   1.045       .  S
C2750      C2751   1.396       .  A
C2751      H2757   1.083       .  S
N2752      C2753   1.355       .  A
N2752      H2760   1.045       .  S
C2753      C2754   1.398       .  A
C2754      H2758   1.082       .  S
C2761      C2766   1.384   1_556  A
C2761      C2762   1.413       .  A
C2761      N2767   1.353   1_556  A
C2762      C2763   1.413       .  A
C2762      H2773   1.082       .  S
C2763      C2772   1.390       .  A
C2763      C2764   1.385       .  A
C2764      C2765   1.395   1_556  A
C2764      N2770   1.337       .  A
C2765      C2766   1.394       .  A
C2765      H2774   1.083       .  S
C2766      C2769   1.367       .  A
N2767      C2768   1.361       .  A
N2767      H2777   1.045   1_554  S
C2768      C2769   1.390       .  A
C2769      H2775   1.083       .  S
N2770      C2771   1.352       .  A
N2770      H2778   1.045       .  S
C2771      C2772   1.401       .  A
C2772      H2776   1.082       .  S
C2779      C2784   1.386       .  A
C2779      C2780   1.406       .  A
C2779      N2785   1.348       .  A
C2780      C2781   1.406       .  A
C2780      H2791   1.082       .  S
C2781      C2790   1.379       .  A
C2781      C2782   1.385       .  A
C2782      C2783   1.400       .  A
C2782      N2788   1.344       .  A
C2783      C2784   1.400       .  A
C2783      H2792   1.083       .  S
C2784      C2787   1.371       .  A
N2785      C2786   1.355       .  A
N2785      H2795   1.045       .  S
C2786      C2787   1.393       .  A
C2787      H2793   1.083       .  S
N2788      C2789   1.354       .  A
N2788      H2796   1.044       .  S
C2789      C2790   1.397       .  A
C2790      H2794   1.082       .  S
C2797      C2802   1.384   1_556  A
C2797      C2798   1.410       .  A
C2797      N2803   1.349   1_556  A
C2798      C2799   1.408       .  A
C2798      H2809   1.082       .  S
C2799      C2808   1.387       .  A
C2799      C2800   1.384       .  A
C2800      C2801   1.400   1_556  A
C2800      N2806   1.339       .  A
C2801      C2802   1.399       .  A
C2801      H2810   1.083       .  S
C2802      C2805   1.375       .  A
N2803      C2804   1.358       .  A
N2803      H2813   1.045   1_554  S
C2804      C2805   1.395       .  A
C2805      H2811   1.083       .  S
N2806      C2807   1.354       .  A
N2806      H2814   1.045       .  S
C2807      C2808   1.398       .  A
C2808      H2812   1.082       .  S
C2815      C2820   1.385       .  A
C2815      C2816   1.408       .  A
C2815      N2821   1.346       .  A
C2816      C2817   1.406       .  A
C2816      H2827   1.082       .  S
C2817      C2826   1.384       .  A
C2817      C2818   1.384       .  A
C2818      C2819   1.401       .  A
C2818      N2824   1.340       .  A
C2819      C2820   1.400       .  A
C2819      H2828   1.082       .  S
C2820      C2823   1.375       .  A
N2821      C2822   1.357       .  A
N2821      H2831   1.045       .  S
C2822      C2823   1.393       .  A
C2823      H2829   1.082       .  S
N2824      C2825   1.355       .  A
N2824      H2832   1.045       .  S
C2825      C2826   1.397       .  A
C2826      H2830   1.082       .  S
C2833      C2838   1.385       .  A
C2833      C2834   1.403       .  A
C2833      N2839   1.348       .  A
C2834      C2835   1.405       .  A
C2834      H2845   1.082       .  S
C2835      C2844   1.375       .  A
C2835      C2836   1.384       .  A
C2836      C2837   1.408       .  A
C2836      N2842   1.352       .  A
C2837      C2838   1.409       .  A
C2837      H2846   1.082       .  S
C2838      C2841   1.380       .  A
N2839      C2840   1.355       .  A
N2839      H2849   1.045       .  S
C2840      C2841   1.398       .  A
C2841      H2847   1.082       .  S
N2842      C2843   1.359       .  A
N2842      H2850   1.044       .  S
C2843      C2844   1.396       .  A
C2844      H2848   1.082       .  S
C2851      C2856   1.384       .  A
C2851      C2852   1.402       .  A
C2851      N2857   1.345       .  A
C2852      C2853   1.402       .  A
C2852      H2863   1.083       .  S
C2853      C2862   1.373       .  A
C2853      C2854   1.385       .  A
C2854      C2855   1.407       .  A
C2854      N2860   1.349       .  A
C2855      C2856   1.408       .  A
C2855      H2864   1.082       .  S
C2856      C2859   1.382       .  A
N2857      C2858   1.355       .  A
N2857      H2867   1.045       .  S
C2858      C2859   1.399       .  A
C2859      H2865   1.082       .  S
N2860      C2861   1.357       .  A
N2860      H2868   1.045       .  S
C2861      C2862   1.395       .  A
C2862      H2866   1.083       .  S
C2869      C2874   1.384       .  A
C2869      C2870   1.407       .  A
C2869      N2875   1.348       .  A
C2870      C2871   1.407       .  A
C2870      H2881   1.082       .  S
C2871      C2880   1.382   1_556  A
C2871      C2872   1.384       .  A
C2872      C2873   1.402       .  A
C2872      N2878   1.343   1_556  A
C2873      C2874   1.402       .  A
C2873      H2882   1.082       .  S
C2874      C2877   1.375       .  A
N2875      C2876   1.358       .  A
N2875      H2885   1.045       .  S
C2876      C2877   1.394       .  A
C2877      H2883   1.082       .  S
N2878      C2879   1.355       .  A
N2878      H2886   1.045       .  S
C2879      C2880   1.397       .  A
C2880      H2884   1.082       .  S
C2887      C2892   1.385       .  A
C2887      C2888   1.400       .  A
C2887      N2893   1.344       .  A
C2888      C2889   1.400       .  A
C2888      H2899   1.083       .  S
C2889      C2898   1.369       .  A
C2889      C2890   1.385       .  A
C2890      C2891   1.405       .  A
C2890      N2896   1.349       .  A
C2891      C2892   1.407       .  A
C2891      H2900   1.082       .  S
C2892      C2895   1.378       .  A
N2893      C2894   1.354       .  A
N2893      H2903   1.045       .  S
C2894      C2895   1.397       .  A
C2895      H2901   1.082       .  S
N2896      C2897   1.355       .  A
N2896      H2904   1.045       .  S
C2897      C2898   1.394       .  A
C2898      H2902   1.083       .  S
C2905      C2910   1.385       .  A
C2905      C2906   1.402       .  A
C2905      N2911   1.339       .  A
C2906      C2907   1.398       .  A
C2906      H2917   1.083       .  S
C2907      C2916   1.377       .  A
C2907      C2908   1.384       .  A
C2908      C2909   1.405       .  A
C2908      N2914   1.343       .  A
C2909      C2910   1.404       .  A
C2909      H2918   1.082       .  S
C2910      C2913   1.383       .  A
N2911      C2912   1.355       .  A
N2911      H2921   1.045       .  S
C2912      C2913   1.396       .  A
C2913      H2919   1.082       .  S
N2914      C2915   1.356       .  A
N2914      H2922   1.046       .  S
C2915      C2916   1.393       .  A
C2916      H2920   1.082       .  S
C2923      C2928   1.384       .  A
C2923      C2924   1.411       .  A
C2923      N2929   1.349       .  A
C2924      C2925   1.410       .  A
C2924      H2935   1.082       .  S
C2925      C2934   1.388       .  A
C2925      C2926   1.384       .  A
C2926      C2927   1.398       .  A
C2926      N2932   1.338       .  A
C2927      C2928   1.396       .  A
C2927      H2936   1.083       .  S
C2928      C2931   1.371       .  A
N2929      C2930   1.358       .  A
N2929      H2939   1.045       .  S
C2930      C2931   1.392       .  A
C2931      H2937   1.083       .  S
N2932      C2933   1.353       .  A
N2932      H2940   1.045       .  S
C2933      C2934   1.400       .  A
C2934      H2938   1.082       .  S
C2941      C2946   1.385       .  A
C2941      C2942   1.405       .  A
C2941      N2947   1.345       .  A
C2942      C2943   1.403       .  A
C2942      H2953   1.082       .  S
C2943      C2952   1.379       .  A
C2943      C2944   1.385       .  A
C2944      C2945   1.401       .  A
C2944      N2950   1.340       .  A
C2945      C2946   1.400       .  A
C2945      H2954   1.082       .  S
C2946      C2949   1.375       .  A
N2947      C2948   1.356       .  A
N2947      H2957   1.046       .  S
C2948      C2949   1.394       .  A
C2949      H2955   1.082       .  S
N2950      C2951   1.354       .  A
N2950      H2958   1.045       .  S
C2951      C2952   1.394       .  A
C2952      H2956   1.082       .  S
C2959      C2964   1.385       .  A
C2959      C2960   1.401       .  A
C2959      N2965   1.339       .  A
C2960      C2961   1.399       .  A
C2960      H2971   1.083       .  S
C2961      C2970   1.376       .  A
C2961      C2962   1.385       .  A
C2962      C2963   1.406       .  A
C2962      N2968   1.345       .  A
C2963      C2964   1.404       .  A
C2963      H2972   1.082       .  S
C2964      C2967   1.383       .  A
N2965      C2966   1.354       .  A
N2965      H2975   1.045       .  S
C2966      C2967   1.394       .  A
C2967      H2973   1.082       .  S
N2968      C2969   1.357       .  A
N2968      H2976   1.045       .  S
C2969      C2970   1.392       .  A
C2970      H2974   1.082       .  S
C2977      C2982   1.385       .  A
C2977      C2978   1.405       .  A
C2977      N2983   1.342       .  A
C2978      C2979   1.403       .  A
C2978      H2989   1.082       .  S
C2979      C2988   1.382       .  A
C2979      C2980   1.385       .  A
C2980      C2981   1.401       .  A
C2980      N2986   1.339       .  A
C2981      C2982   1.398       .  A
C2981      H2990   1.083       .  S
C2982      C2985   1.376       .  A
N2983      C2984   1.356       .  A
N2983      H2993   1.045       .  S
C2984      C2985   1.392       .  A
C2985      H2991   1.082       .  S
N2986      C2987   1.355       .  A
N2986      H2994   1.045       .  S
C2987      C2988   1.394       .  A
C2988      H2992   1.082       .  S
C2995      C3000   1.384       .  A
C2995      C2996   1.401       .  A
C2995      N3001   1.339       .  A
C2996      C2997   1.399       .  A
C2996      H3007   1.083       .  S
C2997      C3006   1.377       .  A
C2997      C2998   1.384       .  A
C2998      C2999   1.410       .  A
C2998      N3004   1.347       .  A
C2999      C3000   1.407       .  A
C2999      H3008   1.082       .  S
C3000      C3003   1.387       .  A
N3001      C3002   1.356       .  A
N3001      H3011   1.045       .  S
C3002      C3003   1.397       .  A
C3003      H3009   1.082       .  S
N3004      C3005   1.359       .  A
N3004      H3012   1.045       .  S
C3005      C3006   1.393       .  A
C3006      H3010   1.082       .  S
C3013      C3018   1.384       .  A
C3013      C3014   1.396       .  A
C3013      N3019   1.337       .  A
C3014      C3015   1.395       .  A
C3014      H3025   1.083       .  S
C3015      C3024   1.368       .  A
C3015      C3016   1.384       .  A
C3016      C3017   1.413       .  A
C3016      N3022   1.353       .  A
C3017      C3018   1.413       .  A
C3017      H3026   1.082       .  S
C3018      C3021   1.390       .  A
N3019      C3020   1.353       .  A
N3019      H3029   1.045       .  S
C3020      C3021   1.401       .  A
C3021      H3027   1.082       .  S
N3022      C3023   1.361       .  A
N3022      H3030   1.045       .  S
C3023      C3024   1.390       .  A
C3024      H3028   1.083       .  S
C3031      C3036   1.385       .  A
C3031      C3032   1.407       .  A
C3031      N3037   1.347       .  A
C3032      C3033   1.406       .  A
C3032      H3043   1.082       .  S
C3033      C3042   1.381       .  A
C3033      C3034   1.385       .  A
C3034      C3035   1.399       .  A
C3034      N3040   1.340       .  A
C3035      C3036   1.399       .  A
C3035      H3044   1.083       .  S
C3036      C3039   1.373       .  A
N3037      C3038   1.357       .  A
N3037      H3047   1.046       .  S
C3038      C3039   1.393       .  A
C3039      H3045   1.082       .  S
N3040      C3041   1.353       .  A
N3040      H3048   1.045       .  S
C3041      C3042   1.396       .  A
C3042      H3046   1.082       .  S
C3049      C3054   1.385       .  A
C3049      C3050   1.401       .  A
C3049      N3055   1.346       .  A
C3050      C3051   1.401       .  A
C3050      H3061   1.082       .  S
C3051      C3060   1.371       .  A
C3051      C3052   1.385       .  A
C3052      C3053   1.402       .  A
C3052      N3058   1.346       .  A
C3053      C3054   1.404       .  A
C3053      H3062   1.083       .  S
C3054      C3057   1.372       .  A
N3055      C3056   1.355       .  A
N3055      H3065   1.044       .  S
C3056      C3057   1.396       .  A
C3057      H3063   1.083       .  S
N3058      C3059   1.355       .  A
N3058      H3066   1.045       .  S
C3059      C3060   1.393       .  A
C3060      H3064   1.082       .  S
C3067      C3072   1.385       .  A
C3067      C3068   1.395       .  A
C3067      N3073   1.338       .  A
C3068      C3069   1.395       .  A
C3068      H3079   1.083       .  S
C3069      C3078   1.365       .  A
C3069      C3070   1.384       .  A
C3070      C3071   1.409       .  A
C3070      N3076   1.351       .  A
C3071      C3072   1.410       .  A
C3071      H3080   1.082       .  S
C3072      C3075   1.385       .  A
N3073      C3074   1.353       .  A
N3073      H3083   1.045       .  S
C3074      C3075   1.398       .  A
C3075      H3081   1.082       .  S
N3076      C3077   1.359       .  A
N3076      H3084   1.045       .  S
C3077      C3078   1.390       .  A
C3078      H3082   1.083       .  S
C3085      C3090   1.385       .  A
C3085      C3086   1.406       .  A
C3085      N3091   1.348       .  A
C3086      C3087   1.406       .  A
C3086      H3097   1.082       .  S
C3087      C3096   1.378       .  A
C3087      C3088   1.385       .  A
C3088      C3089   1.398       .  A
C3088      N3094   1.342       .  A
C3089      C3090   1.399       .  A
C3089      H3098   1.083       .  S
C3090      C3093   1.369       .  A
N3091      C3092   1.357       .  A
N3091      H3101   1.045       .  S
C3092      C3093   1.393       .  A
C3093      H3099   1.083       .  S
N3094      C3095   1.352       .  A
N3094      H3102   1.044       .  S
C3095      C3096   1.397       .  A
C3096      H3100   1.082       .  S
C3103      C3108   1.385       .  A
C3103      C3104   1.403       .  A
C3103      N3109   1.340       .  A
C3104      C3105   1.401       .  A
C3104      H3115   1.082       .  S
C3105      C3114   1.380       .  A
C3105      C3106   1.385       .  A
C3106      C3107   1.401       .  A
C3106      N3112   1.339       .  A
C3107      C3108   1.399       .  A
C3107      H3116   1.083       .  S
C3108      C3111   1.376       .  A
N3109      C3110   1.354       .  A
N3109      H3119   1.046       .  S
C3110      C3111   1.392       .  A
C3111      H3117   1.082       .  S
N3112      C3113   1.355       .  A
N3112      H3120   1.045       .  S
C3113      C3114   1.394       .  A
C3114      H3118   1.082       .  S
C3121      C3126   1.384       .  A
C3121      C3122   1.399       .  A
C3121      N3127   1.338       .  A
C3122      C3123   1.398       .  A
C3122      H3133   1.083       .  S
C3123      C3132   1.373       .  A
C3123      C3124   1.384       .  A
C3124      C3125   1.410       .  A
C3124      N3130   1.349       .  A
C3125      C3126   1.409       .  A
C3125      H3134   1.082       .  S
C3126      C3129   1.388       .  A
N3127      C3128   1.354       .  A
N3127      H3137   1.045       .  S
C3128      C3129   1.399       .  A
C3129      H3135   1.082       .  S
N3130      C3131   1.358       .  A
N3130      H3138   1.045       .  S
C3131      C3132   1.394       .  A
C3132      H3136   1.083       .  S
C3139      C3144   1.385       .  A
C3139      C3140   1.399       .  A
C3139      N3145   1.340       .  A
C3140      C3141   1.398       .  A
C3140      H3151   1.082       .  S
C3141      C3150   1.373       .  A
C3141      C3142   1.384       .  A
C3142      C3143   1.406       .  A
C3142      N3148   1.346       .  A
C3143      C3144   1.406       .  A
C3143      H3152   1.082       .  S
C3144      C3147   1.382       .  A
N3145      C3146   1.353       .  A
N3145      H3155   1.044       .  S
C3146      C3147   1.397       .  A
C3147      H3153   1.082       .  S
N3148      C3149   1.357       .  A
N3148      H3156   1.045       .  S
C3149      C3150   1.393       .  A
C3150      H3154   1.083       .  S
C3157      C3162   1.384       .  A
C3157      C3158   1.406       .  A
C3157      N3163   1.343       .  A
C3158      C3159   1.404       .  A
C3158      H3169   1.082       .  S
C3159      C3168   1.384       .  A
C3159      C3160   1.385       .  A
C3160      C3161   1.402       .  A
C3160      N3166   1.338       .  A
C3161      C3162   1.399       .  A
C3161      H3170   1.083       .  S
C3162      C3165   1.378       .  A
N3163      C3164   1.357       .  A
N3163      H3173   1.045       .  S
C3164      C3165   1.393       .  A
C3165      H3171   1.082       .  S
N3166      C3167   1.354       .  A
N3166      H3174   1.045       .  S
C3167      C3168   1.395       .  A
C3168      H3172   1.082       .  S
C3175      C3180   1.385       .  A
C3175      C3176   1.407       .  A
C3175      N3181   1.349       .  A
C3176      C3177   1.407       .  A
C3176      H3187   1.082       .  S
C3177      C3186   1.381       .  A
C3177      C3178   1.384       .  A
C3178      C3179   1.404       .  A
C3178      N3184   1.346       .  A
C3179      C3180   1.405       .  A
C3179      H3188   1.082       .  S
C3180      C3183   1.376       .  A
N3181      C3182   1.357       .  A
N3181      H3191   1.045       .  S
C3182      C3183   1.397       .  A
C3183      H3189   1.083       .  S
N3184      C3185   1.356       .  A
N3184      H3192   1.044       .  S
C3185      C3186   1.398       .  A
C3186      H3190   1.082       .  S
C3193      C3198   1.384       .  A
C3193      C3194   1.408       .  A
C3193      N3199   1.344       .  A
C3194      C3195   1.405       .  A
C3194      H3205   1.082       .  S
C3195      C3204   1.387       .  A
C3195      C3196   1.385       .  A
C3196      C3197   1.401       .  A
C3196      N3202   1.336       .  A
C3197      C3198   1.398       .  A
C3197      H3206   1.083       .  S
C3198      C3201   1.378       .  A
N3199      C3200   1.357       .  A
N3199      H3209   1.046       .  S
C3200      C3201   1.394       .  A
C3201      H3207   1.082       .  S
N3202      C3203   1.354       .  A
N3202      H3210   1.045       .  S
C3203      C3204   1.396       .  A
C3204      H3208   1.082       .  S
C3211      C3216   1.385       .  A
C3211      C3212   1.407       .  A
C3211      N3217   1.348       .  A
C3212      C3213   1.407       .  A
C3212      H3223   1.082       .  S
C3213      C3222   1.381       .  A
C3213      C3214   1.385       .  A
C3214      C3215   1.398       .  A
C3214      N3220   1.341       .  A
C3215      C3216   1.398       .  A
C3215      H3224   1.082       .  S
C3216      C3219   1.371       .  A
N3217      C3218   1.358       .  A
N3217      H3227   1.045       .  S
C3218      C3219   1.392       .  A
C3219      H3225   1.083       .  S
N3220      C3221   1.353       .  A
N3220      H3228   1.045       .  S
C3221      C3222   1.397       .  A
C3222      H3226   1.082       .  S
C3229      C3234   1.385       .  A
C3229      C3230   1.406       .  A
C3229      N3235   1.349       .  A
C3230      C3231   1.406       .  A
C3230      H3241   1.082       .  S
C3231      C3240   1.379       .  A
C3231      C3232   1.385       .  A
C3232      C3233   1.401       .  A
C3232      N3238   1.344       .  A
C3233      C3234   1.402       .  A
C3233      H3242   1.083       .  S
C3234      C3237   1.374       .  A
N3235      C3236   1.356       .  A
N3235      H3245   1.044       .  S
C3236      C3237   1.395       .  A
C3237      H3243   1.083       .  S
N3238      C3239   1.354       .  A
N3238      H3246   1.045       .  S
C3239      C3240   1.396       .  A
C3240      H3244   1.082       .  S
C3247      C3252   1.385       .  A
C3247      C3248   1.402       .  A
C3247      N3253   1.345       .  A
C3248      C3249   1.403       .  A
C3248      H3259   1.083       .  S
C3249      C3258   1.374       .  A
C3249      C3250   1.385       .  A
C3250      C3251   1.404       .  A
C3250      N3256   1.347       .  A
C3251      C3252   1.405       .  A
C3251      H3260   1.082       .  S
C3252      C3255   1.378       .  A
N3253      C3254   1.355       .  A
N3253      H3263   1.044       .  S
C3254      C3255   1.396       .  A
C3255      H3261   1.082       .  S
N3256      C3257   1.355       .  A
N3256      H3264   1.046       .  S
C3257      C3258   1.396       .  A
C3258      H3262   1.083       .  S
C3265      C3270   1.384       .  A
C3265      C3266   1.407       .  A
C3265      N3271   1.347       .  A
C3266      C3267   1.406       .  A
C3266      H3277   1.082       .  S
C3267      C3276   1.382       .  A
C3267      C3268   1.385       .  A
C3268      C3269   1.399       .  A
C3268      N3274   1.339       .  A
C3269      C3270   1.398       .  A
C3269      H3278   1.083       .  S
C3270      C3273   1.373       .  A
N3271      C3272   1.358       .  A
N3271      H3281   1.045       .  S
C3272      C3273   1.393       .  A
C3273      H3279   1.082       .  S
N3274      C3275   1.353       .  A
N3274      H3282   1.045       .  S
C3275      C3276   1.396       .  A
C3276      H3280   1.082       .  S
C3283      C3288   1.384       .  A
C3283      C3284   1.409       .  A
C3283      N3289   1.344       .  A
C3284      C3285   1.407       .  A
C3284      H3295   1.082       .  S
C3285      C3294   1.388       .  A
C3285      C3286   1.385       .  A
C3286      C3287   1.399       .  A
C3286      N3292   1.337       .  A
C3287      C3288   1.396       .  A
C3287      H3296   1.083       .  S
C3288      C3291   1.375       .  A
N3289      C3290   1.358       .  A
N3289      H3299   1.047       .  S
C3290      C3291   1.391       .  A
C3291      H3297   1.083       .  S
N3292      C3293   1.354       .  A
N3292      H3300   1.045       .  S
C3293      C3294   1.397       .  A
C3294      H3298   1.082       .  S
C3301      C3306   1.385       .  A
C3301      C3302   1.402       .  A
C3301      N3307   1.346       .  A
C3302      C3303   1.404       .  A
C3302      H3313   1.083       .  S
C3303      C3312   1.372       .  A
C3303      C3304   1.385       .  A
C3304      C3305   1.403       .  A
C3304      N3310   1.348       .  A
C3305      C3306   1.403       .  A
C3305      H3314   1.082       .  S
C3306      C3309   1.375       .  A
N3307      C3308   1.355       .  A
N3307      H3317   1.044       .  S
C3308      C3309   1.394       .  A
C3309      H3315   1.082       .  S
N3310      C3311   1.355       .  A
N3310      H3318   1.044       .  S
C3311      C3312   1.396       .  A
C3312      H3316   1.083       .  S
C3319      C3324   1.383       .  A
C3319      C3320   1.414       .  A
C3319      N3325   1.354       .  A
C3320      C3321   1.415       .  A
C3320      H3331   1.082       .  S
C3321      C3330   1.392       .  A
C3321      C3322   1.384       .  A
C3322      C3323   1.396       .  A
C3322      N3328   1.338       .  A
C3323      C3324   1.394       .  A
C3323      H3332   1.083       .  S
C3324      C3327   1.367       .  A
N3325      C3326   1.361       .  A
N3325      H3335   1.045       .  S
C3326      C3327   1.390       .  A
C3327      H3333   1.083       .  S
N3328      C3329   1.353       .  A
N3328      H3336   1.045       .  S
C3329      C3330   1.403       .  A
C3330      H3334   1.082       .  S
C3337      C3342   1.385       .  A
C3337      C3338   1.402       .  A
C3337      N3343   1.347       .  A
C3338      C3339   1.404       .  A
C3338      H3349   1.083       .  S
C3339      C3348   1.372       .  A
C3339      C3340   1.385       .  A
C3340      C3341   1.403       .  A
C3340      N3346   1.348       .  A
C3341      C3342   1.404       .  A
C3341      H3350   1.082       .  S
C3342      C3345   1.376       .  A
N3343      C3344   1.356       .  A
N3343      H3353   1.045       .  S
C3344      C3345   1.395       .  A
C3345      H3351   1.082       .  S
N3346      C3347   1.355       .  A
N3346      H3354   1.044       .  S
C3347      C3348   1.395       .  A
C3348      H3352   1.083       .  S
C3355      C3360   1.383       .  A
C3355      C3356   1.414       .  A
C3355      N3361   1.353       .  A
C3356      C3357   1.414       .  A
C3356      H3367   1.082       .  S
C3357      C3366   1.392       .  A
C3357      C3358   1.384       .  A
C3358      C3359   1.401       .  A
C3358      N3364   1.342       .  A
C3359      C3360   1.400       .  A
C3359      H3368   1.082       .  S
C3360      C3363   1.375       .  A
N3361      C3362   1.361       .  A
N3361      H3371   1.045       .  S
C3362      C3363   1.394       .  A
C3363      H3369   1.083       .  S
N3364      C3365   1.355       .  A
N3364      H3372   1.045       .  S
C3365      C3366   1.402       .  A
C3366      H3370   1.082       .  S
C3373      C3378   1.385       .  A
C3373      C3374   1.399   1_565  A
C3373      N3379   1.338       .  A
C3374      C3375   1.397       .  A
C3374      H3385   1.082       .  S
C3375      C3384   1.374       .  A
C3375      C3376   1.385       .  A
C3376      C3377   1.406       .  A
C3376      N3382   1.343       .  A
C3377      C3378   1.405   1_545  A
C3377      H3386   1.082       .  S
C3378      C3381   1.384       .  A
N3379      C3380   1.353       .  A
N3379      H3389   1.045       .  S
C3380      C3381   1.398       .  A
C3381      H3387   1.082       .  S
N3382      C3383   1.355       .  A
N3382      H3390   1.046       .  S
C3383      C3384   1.392       .  A
C3384      H3388   1.083       .  S
C3391      C3396   1.384       .  A
C3391      C3392   1.407       .  A
C3391      N3397   1.345       .  A
C3392      C3393   1.406       .  A
C3392      H3403   1.082       .  S
C3393      C3402   1.385       .  A
C3393      C3394   1.385       .  A
C3394      C3395   1.402       .  A
C3394      N3400   1.339       .  A
C3395      C3396   1.399       .  A
C3395      H3404   1.083       .  S
C3396      C3399   1.378       .  A
N3397      C3398   1.358       .  A
N3397      H3407   1.044       .  S
C3398      C3399   1.393       .  A
C3399      H3405   1.082       .  S
N3400      C3401   1.355       .  A
N3400      H3408   1.045       .  S
C3401      C3402   1.396       .  A
C3402      H3406   1.082       .  S
C3409      C3414   1.385       .  A
C3409      C3410   1.400       .  A
C3409      N3415   1.343       .  A
C3410      C3411   1.400       .  A
C3410      H3421   1.082       .  S
C3411      C3420   1.371       .  A
C3411      C3412   1.385       .  A
C3412      C3413   1.407       .  A
C3412      N3418   1.349       .  A
C3413      C3414   1.407       .  A
C3413      H3422   1.082       .  S
C3414      C3417   1.380       .  A
N3415      C3416   1.353       .  A
N3415      H3425   1.044       .  S
C3416      C3417   1.397       .  A
C3417      H3423   1.082       .  S
N3418      C3419   1.356       .  A
N3418      H3426   1.045       .  S
C3419      C3420   1.394       .  A
C3420      H3424   1.083       .  S
C3427      C3432   1.384       .  A
C3427      C3428   1.412       .  A
C3427      N3433   1.352       .  A
C3428      C3429   1.411       .  A
C3428      H3439   1.082       .  S
C3429      C3438   1.389       .  A
C3429      C3430   1.384       .  A
C3430      C3431   1.401       .  A
C3430      N3436   1.340       .  A
C3431      C3432   1.400       .  A
C3431      H3440   1.083       .  S
C3432      C3435   1.375       .  A
N3433      C3434   1.360       .  A
N3433      H3443   1.045       .  S
C3434      C3435   1.395       .  A
C3435      H3441   1.083       .  S
N3436      C3437   1.355       .  A
N3436      H3444   1.045       .  S
C3437      C3438   1.400       .  A
C3438      H3442   1.082       .  S
C3445      C3450   1.387       .  A
C3445      C3446   1.404       .  A
C3445      N3451   1.347       .  A
C3446      C3447   1.404       .  A
C3446      H3457   1.082       .  S
C3447      C3456   1.375       .  A
C3447      C3448   1.385       .  A
C3448      C3449   1.398       .  A
C3448      N3454   1.342       .  A
C3449      C3450   1.399       .  A
C3449      H3458   1.083       .  S
C3450      C3453   1.370       .  A
N3451      C3452   1.355       .  A
N3451      H3461   1.045       .  S
C3452      C3453   1.393       .  A
C3453      H3459   1.083       .  S
N3454      C3455   1.352       .  A
N3454      H3462   1.045       .  S
C3455      C3456   1.395       .  A
C3456      H3460   1.083       .  S
C3463      C3468   1.384       .  A
C3463      C3464   1.410       .  A
C3463      N3469   1.349       .  A
C3464      C3465   1.410       .  A
C3464      H3475   1.082       .  S
C3465      C3474   1.388       .  A
C3465      C3466   1.384       .  A
C3466      C3467   1.398       .  A
C3466      N3472   1.338       .  A
C3467      C3468   1.396       .  A
C3467      H3476   1.083       .  S
C3468      C3471   1.370       .  A
N3469      C3470   1.358       .  A
N3469      H3479   1.045       .  S
C3470      C3471   1.392       .  A
C3471      H3477   1.083       .  S
N3472      C3473   1.353       .  A
N3472      H3480   1.045       .  S
C3473      C3474   1.400       .  A
C3474      H3478   1.082       .  S
C3481      C3486   1.385       .  A
C3481      C3482   1.403       .  A
C3481      N3487   1.343       .  A
C3482      C3483   1.403       .  A
C3482      H3493   1.082       .  S
C3483      C3492   1.378       .  A
C3483      C3484   1.385       .  A
C3484      C3485   1.402       .  A
C3484      N3490   1.344       .  A
C3485      C3486   1.401       .  A
C3485      H3494   1.082       .  S
C3486      C3489   1.375       .  A
N3487      C3488   1.354       .  A
N3487      H3497   1.046       .  S
C3488      C3489   1.393       .  A
C3489      H3495   1.083       .  S
N3490      C3491   1.355       .  A
N3490      H3498   1.045       .  S
C3491      C3492   1.395       .  A
C3492      H3496   1.082       .  S
C3499      C3504   1.385       .  A
C3499      C3500   1.404       .  A
C3499      N3505   1.341       .  A
C3500      C3501   1.401       .  A
C3500      H3511   1.082       .  S
C3501      C3510   1.380       .  A
C3501      C3502   1.384       .  A
C3502      C3503   1.405       .  A
C3502      N3508   1.342       .  A
C3503      C3504   1.403       .  A
C3503      H3512   1.082       .  S
C3504      C3507   1.382       .  A
N3505      C3506   1.356       .  A
N3505      H3515   1.045       .  S
C3506      C3507   1.394       .  A
C3507      H3513   1.082       .  S
N3508      C3509   1.356       .  A
N3508      H3516   1.045       .  S
C3509      C3510   1.394       .  A
C3510      H3514   1.082       .  S
C3517      C3522   1.385       .  A
C3517      C3518   1.401       .  A
C3517      N3523   1.344       .  A
C3518      C3519   1.402       .  A
C3518      H3529   1.083       .  S
C3519      C3528   1.373       .  A
C3519      C3520   1.385       .  A
C3520      C3521   1.404       .  A
C3520      N3526   1.347       .  A
C3521      C3522   1.404       .  A
C3521      H3530   1.082       .  S
C3522      C3525   1.377       .  A
N3523      C3524   1.354       .  A
N3523      H3533   1.045       .  S
C3524      C3525   1.395       .  A
C3525      H3531   1.082       .  S
N3526      C3527   1.355       .  A
N3526      H3534   1.045       .  S
C3527      C3528   1.395       .  A
C3528      H3532   1.083       .  S
C3535      C3540   1.385       .  A
C3535      C3536   1.404       .  A
C3535      N3541   1.348       .  A
C3536      C3537   1.405       .  A
C3536      H3547   1.082       .  S
C3537      C3546   1.377       .  A
C3537      C3538   1.385       .  A
C3538      C3539   1.400       .  A
C3538      N3544   1.344       .  A
C3539      C3540   1.401       .  A
C3539      H3548   1.083       .  S
C3540      C3543   1.371       .  A
N3541      C3542   1.356       .  A
N3541      H3551   1.045       .  S
C3542      C3543   1.394       .  A
C3543      H3549   1.083       .  S
N3544      C3545   1.354       .  A
N3544      H3552   1.044       .  S
C3545      C3546   1.395       .  A
C3546      H3550   1.082       .  S
C3553      C3558   1.385       .  A
C3553      C3554   1.403       .  A
C3553      N3559   1.345       .  A
C3554      C3555   1.403       .  A
C3554      H3565   1.082       .  S
C3555      C3564   1.377       .  A
C3555      C3556   1.385       .  A
C3556      C3557   1.398       .  A
C3556      N3562   1.340       .  A
C3557      C3558   1.398       .  A
C3557      H3566   1.083       .  S
C3558      C3561   1.370       .  A
N3559      C3560   1.355       .  A
N3559      H3569   1.046       .  S
C3560      C3561   1.392       .  A
C3561      H3567   1.083       .  S
N3562      C3563   1.353       .  A
N3562      H3570   1.045       .  S
C3563      C3564   1.394       .  A
C3564      H3568   1.082       .  S
C3571      C3576   1.385       .  A
C3571      C3572   1.402       .  A
C3571      N3577   1.346       .  A
C3572      C3573   1.403       .  A
C3572      H3583   1.082       .  S
C3573      C3582   1.375       .  A
C3573      C3574   1.385       .  A
C3574      C3575   1.402       .  A
C3574      N3580   1.346       .  A
C3575      C3576   1.403       .  A
C3575      H3584   1.083       .  S
C3576      C3579   1.373       .  A
N3577      C3578   1.354       .  A
N3577      H3587   1.045       .  S
C3578      C3579   1.396       .  A
C3579      H3585   1.083       .  S
N3580      C3581   1.355       .  A
N3580      H3588   1.044       .  S
C3581      C3582   1.395       .  A
C3582      H3586   1.082       .  S
C3589      C3594   1.384       .  A
C3589      C3590   1.408       .  A
C3589      N3595   1.348       .  A
C3590      C3591   1.407       .  A
C3590      H3601   1.082       .  S
C3591      C3600   1.385       .  A
C3591      C3592   1.385       .  A
C3592      C3593   1.399       .  A
C3592      N3598   1.338       .  A
C3593      C3594   1.398       .  A
C3593      H3602   1.083       .  S
C3594      C3597   1.373       .  A
N3595      C3596   1.357       .  A
N3595      H3605   1.044       .  S
C3596      C3597   1.394       .  A
C3597      H3603   1.083       .  S
N3598      C3599   1.354       .  A
N3598      H3606   1.045       .  S
C3599      C3600   1.397       .  A
C3600      H3604   1.082       .  S
C3607      C3612   1.385       .  A
C3607      C3608   1.402       .  A
C3607      N3613   1.345       .  A
C3608      C3609   1.403       .  A
C3608      H3619   1.083       .  S
C3609      C3618   1.374       .  A
C3609      C3610   1.385       .  A
C3610      C3611   1.403       .  A
C3610      N3616   1.346       .  A
C3611      C3612   1.403       .  A
C3611      H3620   1.082       .  S
C3612      C3615   1.376       .  A
N3613      C3614   1.355       .  A
N3613      H3623   1.044       .  S
C3614      C3615   1.395       .  A
C3615      H3621   1.082       .  S
N3616      C3617   1.354       .  A
N3616      H3624   1.044       .  S
C3617      C3618   1.396       .  A
C3618      H3622   1.083       .  S
C3625      C3630   1.384       .  A
C3625      C3626   1.408       .  A
C3625      N3631   1.347   1_556  A
C3626      C3627   1.406       .  A
C3626      H3637   1.082       .  S
C3627      C3636   1.383       .  A
C3627      C3628   1.384       .  A
C3628      C3629   1.401       .  A
C3628      N3634   1.341       .  A
C3629      C3630   1.400       .  A
C3629      H3638   1.082       .  S
C3630      C3633   1.376   1_556  A
N3631      C3632   1.358       .  A
N3631      H3641   1.045       .  S
C3632      C3633   1.394       .  A
C3633      H3639   1.082       .  S
N3634      C3635   1.355       .  A
N3634      H3642   1.045       .  S
C3635      C3636   1.397       .  A
C3636      H3640   1.082       .  S
C3643      C3648   1.384       .  A
C3643      C3644   1.402       .  A
C3643      N3649   1.339       .  A
C3644      C3645   1.399       .  A
C3644      H3655   1.082       .  S
C3645      C3654   1.378       .  A
C3645      C3646   1.384       .  A
C3646      C3647   1.409       .  A
C3646      N3652   1.345       .  A
C3647      C3648   1.406       .  A
C3647      H3656   1.082       .  S
C3648      C3651   1.387       .  A
N3649      C3650   1.355       .  A
N3649      H3659   1.045       .  S
C3650      C3651   1.397       .  A
C3651      H3657   1.082       .  S
N3652      C3653   1.358       .  A
N3652      H3660   1.046       .  S
C3653      C3654   1.393       .  A
C3654      H3658   1.082       .  S
C3661      C3666   1.385       .  A
C3661      C3662   1.408       .  A
C3661      N3667   1.351       .  A
C3662      C3663   1.409       .  A
C3662      H3673   1.082       .  S
C3663      C3672   1.382       .  A
C3663      C3664   1.385       .  A
C3664      C3665   1.400       .  A
C3664      N3670   1.343       .  A
C3665      C3666   1.401       .  A
C3665      H3674   1.083       .  S
C3666      C3669   1.372       .  A
N3667      C3668   1.358       .  A
N3667      H3677   1.044       .  S
C3668      C3669   1.394       .  A
C3669      H3675   1.083       .  S
N3670      C3671   1.354       .  A
N3670      H3678   1.045       .  S
C3671      C3672   1.399       .  A
C3672      H3676   1.082       .  S
C3679      C3684   1.386       .  A
C3679      C3680   1.403       .  A
C3679      N3685   1.346       .  A
C3680      C3681   1.403       .  A
C3680      H3691   1.082       .  S
C3681      C3690   1.376       .  A
C3681      C3682   1.385       .  A
C3682      C3683   1.402       .  A
C3682      N3688   1.345       .  A
C3683      C3684   1.402       .  A
C3683      H3692   1.083       .  S
C3684      C3687   1.373       .  A
N3685      C3686   1.354       .  A
N3685      H3695   1.046       .  S
C3686      C3687   1.394       .  A
C3687      H3693   1.083       .  S
N3688      C3689   1.355       .  A
N3688      H3696   1.044       .  S
C3689      C3690   1.395       .  A
C3690      H3694   1.083       .  S
C3697      C3702   1.385   1_455  A
C3697      C3698   1.408       .  A
C3697      N3703   1.349   1_455  A
C3698      C3699   1.407       .  A
C3698      H3709   1.082       .  S
C3699      C3708   1.382       .  A
C3699      C3700   1.385       .  A
C3700      C3701   1.399   1_455  A
C3700      N3706   1.340       .  A
C3701      C3702   1.399       .  A
C3701      H3710   1.083       .  S
C3702      C3705   1.371       .  A
N3703      C3704   1.358       .  A
N3703      H3713   1.045   1_655  S
C3704      C3705   1.393       .  A
C3705      H3711   1.083       .  S
N3706      C3707   1.355       .  A
N3706      H3714   1.045       .  S
C3707      C3708   1.396       .  A
C3708      H3712   1.082       .  S
C3715      C3720   1.384       .  A
C3715      C3716   1.403       .  A
C3715      N3721   1.343       .  A
C3716      C3717   1.402       .  A
C3716      H3727   1.082       .  S
C3717      C3726   1.379       .  A
C3717      C3718   1.384       .  A
C3718      C3719   1.409       .  A
C3718      N3724   1.347       .  A
C3719      C3720   1.409       .  A
C3719      H3728   1.082       .  S
C3720      C3723   1.387       .  A
N3721      C3722   1.355       .  A
N3721      H3731   1.045       .  S
C3722      C3723   1.400       .  A
C3723      H3729   1.082       .  S
N3724      C3725   1.358       .  A
N3724      H3732   1.045       .  S
C3725      C3726   1.395       .  A
C3726      H3730   1.082       .  S
C3733      C3738   1.384       .  A
C3733      C3734   1.404       .  A
C3733      N3739   1.340       .  A
C3734      C3735   1.401       .  A
C3734      H3745   1.082       .  S
C3735      C3744   1.381       .  A
C3735      C3736   1.384       .  A
C3736      C3737   1.407       .  A
C3736      N3742   1.345       .  A
C3737      C3738   1.406       .  A
C3737      H3746   1.082       .  S
C3738      C3741   1.386       .  A
N3739      C3740   1.356       .  A
N3739      H3749   1.044       .  S
C3740      C3741   1.396       .  A
C3741      H3747   1.082       .  S
N3742      C3743   1.357       .  A
N3742      H3750   1.044       .  S
C3743      C3744   1.395       .  A
C3744      H3748   1.082       .  S
C3751      C3756   1.385       .  A
C3751      C3752   1.402       .  A
C3751      N3757   1.347       .  A
C3752      C3753   1.403       .  A
C3752      H3763   1.083   1_655  S
C3753      C3762   1.373       .  A
C3753      C3754   1.385       .  A
C3754      C3755   1.407       .  A
C3754      N3760   1.351       .  A
C3755      C3756   1.408       .  A
C3755      H3764   1.082       .  S
C3756      C3759   1.379       .  A
N3757      C3758   1.355       .  A
N3757      H3767   1.045   1_655  S
C3758      C3759   1.397       .  A
C3759      H3765   1.082       .  S
N3760      C3761   1.357       .  A
N3760      H3768   1.046       .  S
C3761      C3762   1.395       .  A
C3762      H3766   1.083       .  S
C3769      C3774   1.384       .  A
C3769      C3770   1.400       .  A
C3769      N3775   1.341       .  A
C3770      C3771   1.398       .  A
C3770      H3781   1.083       .  S
C3771      C3780   1.372       .  A
C3771      C3772   1.384       .  A
C3772      C3773   1.411       .  A
C3772      N3778   1.351       .  A
C3773      C3774   1.411       .  A
C3773      H3782   1.082       .  S
C3774      C3777   1.388       .  A
N3775      C3776   1.355       .  A
N3775      H3785   1.045       .  S
C3776      C3777   1.400       .  A
C3777      H3783   1.082       .  S
N3778      C3779   1.359       .  A
N3778      H3786   1.045       .  S
C3779      C3780   1.393       .  A
C3780      H3784   1.083       .  S
C3787      C3792   1.385       .  A
C3787      C3788   1.407       .  A
C3787      N3793   1.351       .  A
C3788      C3789   1.408       .  A
C3788      H3799   1.082       .  S
C3789      C3798   1.380       .  A
C3789      C3790   1.385       .  A
C3790      C3791   1.402       .  A
C3790      N3796   1.347       .  A
C3791      C3792   1.403       .  A
C3791      H3800   1.082       .  S
C3792      C3795   1.373       .  A
N3793      C3794   1.357       .  A
N3793      H3803   1.046       .  S
C3794      C3795   1.395       .  A
C3795      H3801   1.083       .  S
N3796      C3797   1.355       .  A
N3796      H3804   1.044       .  S
C3797      C3798   1.398       .  A
C3798      H3802   1.082       .  S
C3805      C3810   1.384       .  A
C3805      C3806   1.408       .  A
C3805      N3811   1.345       .  A
C3806      C3807   1.406       .  A
C3806      H3817   1.082       .  S
C3807      C3816   1.386       .  A
C3807      C3808   1.384       .  A
C3808      C3809   1.404       .  A
C3808      N3814   1.341       .  A
C3809      C3810   1.402       .  A
C3809      H3818   1.082       .  S
C3810      C3813   1.382       .  A
N3811      C3812   1.358       .  A
N3811      H3821   1.045       .  S
C3812      C3813   1.395       .  A
C3813      H3819   1.082       .  S
N3814      C3815   1.356       .  A
N3814      H3822   1.045       .  S
C3815      C3816   1.397       .  A
C3816      H3820   1.082       .  S
C3823      C3828   1.384       .  A
C3823      C3824   1.413       .  A
C3823      N3829   1.353       .  A
C3824      C3825   1.413       .  A
C3824      H3835   1.082       .  S
C3825      C3834   1.389   1_455  A
C3825      C3826   1.385   1_455  A
C3826      C3827   1.393       .  A
C3826      N3832   1.336       .  A
C3827      C3828   1.392   1_655  A
C3827      H3836   1.083       .  S
C3828      C3831   1.364       .  A
N3829      C3830   1.361       .  A
N3829      H3839   1.045       .  S
C3830      C3831   1.389       .  A
C3831      H3837   1.083       .  S
N3832      C3833   1.351       .  A
N3832      H3840   1.045       .  S
C3833      C3834   1.401       .  A
C3834      H3838   1.082   1_655  S
C3841      C3846   1.384       .  A
C3841      C3842   1.406       .  A
C3841      N3847   1.346       .  A
C3842      C3843   1.405       .  A
C3842      H3853   1.082       .  S
C3843      C3852   1.381       .  A
C3843      C3844   1.384       .  A
C3844      C3845   1.406       .  A
C3844      N3850   1.346       .  A
C3845      C3846   1.405       .  A
C3845      H3854   1.082       .  S
C3846      C3849   1.380       .  A
N3847      C3848   1.356       .  A
N3847      H3857   1.045       .  S
C3848      C3849   1.396       .  A
C3849      H3855   1.082       .  S
N3850      C3851   1.357       .  A
N3850      H3858   1.044       .  S
C3851      C3852   1.396       .  A
C3852      H3856   1.082       .  S
C3859      C3864   1.384       .  A
C3859      C3860   1.407       .  A
C3859      N3865   1.349       .  A
C3860      C3861   1.408       .  A
C3860      H3871   1.082       .  S
C3861      C3870   1.380       .  A
C3861      C3862   1.385       .  A
C3862      C3863   1.397       .  A
C3862      N3868   1.341       .  A
C3863      C3864   1.398       .  A
C3863      H3872   1.083       .  S
C3864      C3867   1.369       .  A
N3865      C3866   1.357       .  A
N3865      H3875   1.045       .  S
C3866      C3867   1.393       .  A
C3867      H3873   1.083       .  S
N3868      C3869   1.351       .  A
N3868      H3876   1.044       .  S
C3869      C3870   1.398       .  A
C3870      H3874   1.082       .  S
C3877      C3882   1.384       .  A
C3877      C3878   1.405       .  A
C3877      N3883   1.340       .  A
C3878      C3879   1.402       .  A
C3878      H3889   1.083       .  S
C3879      C3888   1.382       .  A
C3879      C3880   1.384       .  A
C3880      C3881   1.407       .  A
C3880      N3886   1.344       .  A
C3881      C3882   1.405       .  A
C3881      H3890   1.082       .  S
C3882      C3885   1.386       .  A
N3883      C3884   1.356       .  A
N3883      H3893   1.045       .  S
C3884      C3885   1.397       .  A
C3885      H3891   1.082       .  S
N3886      C3887   1.357       .  A
N3886      H3894   1.045       .  S
C3887      C3888   1.396       .  A
C3888      H3892   1.082       .  S
C3895      C3900   1.384       .  A
C3895      C3896   1.400       .  A
C3895      N3901   1.335       .  A
C3896      C3897   1.396       .  A
C3896      H3907   1.083       .  S
C3897      C3906   1.377       .  A
C3897      C3898   1.384       .  A
C3898      C3899   1.407       .  A
C3898      N3904   1.342       .  A
C3899      C3900   1.404       .  A
C3899      H3908   1.082       .  S
C3900      C3903   1.385       .  A
N3901      C3902   1.354       .  A
N3901      H3911   1.045       .  S
C3902      C3903   1.397       .  A
C3903      H3909   1.082       .  S
N3904      C3905   1.356       .  A
N3904      H3912   1.046       .  S
C3905      C3906   1.392       .  A
C3906      H3910   1.083       .  S
C3913      C3918   1.384       .  A
C3913      C3914   1.407       .  A
C3913      N3919   1.344       .  A
C3914      C3915   1.405       .  A
C3914      H3925   1.082       .  S
C3915      C3924   1.384       .  A
C3915      C3916   1.385       .  A
C3916      C3917   1.402       .  A
C3916      N3922   1.339       .  A
C3917      C3918   1.398       .  A
C3917      H3926   1.083       .  S
C3918      C3921   1.377       .  A
N3919      C3920   1.357       .  A
N3919      H3929   1.045       .  S
C3920      C3921   1.392       .  A
C3921      H3927   1.082       .  S
N3922      C3923   1.355       .  A
N3922      H3930   1.045       .  S
C3923      C3924   1.396       .  A
C3924      H3928   1.082       .  S
C3931      C3936   1.385       .  A
C3931      C3932   1.400       .  A
C3931      N3937   1.340       .  A
C3932      C3933   1.399       .  A
C3932      H3943   1.082       .  S
C3933      C3942   1.375       .  A
C3933      C3934   1.384       .  A
C3934      C3935   1.407       .  A
C3934      N3940   1.346       .  A
C3935      C3936   1.406       .  A
C3935      H3944   1.082       .  S
C3936      C3939   1.382       .  A
N3937      C3938   1.354       .  A
N3937      H3947   1.045       .  S
C3938      C3939   1.397       .  A
C3939      H3945   1.082       .  S
N3940      C3941   1.357       .  A
N3940      H3948   1.045       .  S
C3941      C3942   1.394       .  A
C3942      H3946   1.082       .  S
C3949      C3954   1.385       .  A
C3949      C3950   1.406       .  A
C3949      N3955   1.348       .  A
C3950      C3951   1.406       .  A
C3950      H3961   1.082       .  S
C3951      C3960   1.380       .  A
C3951      C3952   1.384       .  A
C3952      C3953   1.402       .  A
C3952      N3958   1.345       .  A
C3953      C3954   1.403       .  A
C3953      H3962   1.082       .  S
C3954      C3957   1.375       .  A
N3955      C3956   1.356       .  A
N3955      H3965   1.045       .  S
C3956      C3957   1.395       .  A
C3957      H3963   1.083       .  S
N3958      C3959   1.355       .  A
N3958      H3966   1.045       .  S
C3959      C3960   1.397       .  A
C3960      H3964   1.082       .  S
C3967      C3972   1.384       .  A
C3967      C3968   1.407       .  A
C3967      N3973   1.344       .  A
C3968      C3969   1.405       .  A
C3968      H3979   1.082       .  S
C3969      C3978   1.385       .  A
C3969      C3970   1.385       .  A
C3970      C3971   1.402       .  A
C3970      N3976   1.338       .  A
C3971      C3972   1.399       .  A
C3971      H3980   1.083       .  S
C3972      C3975   1.378       .  A
N3973      C3974   1.357       .  A
N3973      H3983   1.045       .  S
C3974      C3975   1.393       .  A
C3975      H3981   1.082       .  S
N3976      C3977   1.354       .  A
N3976      H3984   1.045       .  S
C3977      C3978   1.395       .  A
C3978      H3982   1.082       .  S
C3985      C3990   1.384       .  A
C3985      C3986   1.413       .  A
C3985      N3991   1.351       .  A
C3986      C3987   1.412       .  A
C3986      H3997   1.082       .  S
C3987      C3996   1.390       .  A
C3987      C3988   1.385       .  A
C3988      C3989   1.394       .  A
C3988      N3994   1.335       .  A
C3989      C3990   1.393       .  A
C3989      H3998   1.083       .  S
C3990      C3993   1.367       .  A
N3991      C3992   1.360       .  A
N3991      H4001   1.045       .  S
C3992      C3993   1.390       .  A
C3993      H3999   1.083       .  S
N3994      C3995   1.351       .  A
N3994      H4002   1.045       .  S
C3995      C3996   1.401       .  A
C3996      H4000   1.082       .  S
C4003      C4008   1.384       .  A
C4003      C4004   1.409       .  A
C4003      N4009   1.346       .  A
C4004      C4005   1.407       .  A
C4004      H4015   1.082       .  S
C4005      C4014   1.386       .  A
C4005      C4006   1.384       .  A
C4006      C4007   1.403       .  A
C4006      N4012   1.341       .  A
C4007      C4008   1.401       .  A
C4007      H4016   1.082       .  S
C4008      C4011   1.380       .  A
N4009      C4010   1.358       .  A
N4009      H4019   1.045       .  S
C4010      C4011   1.394       .  A
C4011      H4017   1.082       .  S
N4012      C4013   1.356       .  A
N4012      H4020   1.045       .  S
C4013      C4014   1.397       .  A
C4014      H4018   1.082       .  S
C4021      C4026   1.384       .  A
C4021      C4022   1.407       .  A
C4021      N4027   1.346   1_455  A
C4022      C4023   1.405       .  A
C4022      H4033   1.082       .  S
C4023      C4032   1.382       .  A
C4023      C4024   1.384       .  A
C4024      C4025   1.401       .  A
C4024      N4030   1.341       .  A
C4025      C4026   1.400       .  A
C4025      H4034   1.083       .  S
C4026      C4029   1.376   1_455  A
N4027      C4028   1.357       .  A
N4027      H4037   1.045       .  S
C4028      C4029   1.395       .  A
C4029      H4035   1.083       .  S
N4030      C4031   1.354       .  A
N4030      H4038   1.045       .  S
C4031      C4032   1.397       .  A
C4032      H4036   1.082       .  S
C4039      C4044   1.384       .  A
C4039      C4040   1.410       .  A
C4039      N4045   1.348       .  A
C4040      C4041   1.409       .  A
C4040      H4051   1.082       .  S
C4041      C4050   1.387       .  A
C4041      C4042   1.384       .  A
C4042      C4043   1.401       .  A
C4042      N4048   1.339       .  A
C4043      C4044   1.398       .  A
C4043      H4052   1.083       .  S
C4044      C4047   1.376       .  A
N4045      C4046   1.360       .  A
N4045      H4055   1.045       .  S
C4046      C4047   1.392       .  A
C4047      H4053   1.082   1_655  S
N4048      C4049   1.355       .  A
N4048      H4056   1.045       .  S
C4049      C4050   1.398       .  A
C4050      H4054   1.082       .  S
C4057      C4062   1.385       .  A
C4057      C4058   1.402       .  A
C4057      N4063   1.338       .  A
C4058      C4059   1.398       .  A
C4058      H4069   1.083       .  S
C4059      C4068   1.378       .  A
C4059      C4060   1.384       .  A
C4060      C4061   1.406       .  A
C4060      N4066   1.343       .  A
C4061      C4062   1.404       .  A
C4061      H4070   1.082       .  S
C4062      C4065   1.385       .  A
N4063      C4064   1.354       .  A
N4063      H4073   1.045       .  S
C4064      C4065   1.396       .  A
C4065      H4071   1.082       .  S
N4066      C4067   1.356       .  A
N4066      H4074   1.046       .  S
C4067      C4068   1.393       .  A
C4068      H4072   1.082       .  S
C4075      C4080   1.384       .  A
C4075      C4076   1.401       .  A
C4075      N4081   1.341       .  A
C4076      C4077   1.399       .  A
C4076      H4087   1.083       .  S
C4077      C4086   1.375       .  A
C4077      C4078   1.384       .  A
C4078      C4079   1.411       .  A
C4078      N4084   1.350       .  A
C4079      C4080   1.411       .  A
C4079      H4088   1.082       .  S
C4080      C4083   1.390       .  A
N4081      C4082   1.355       .  A
N4081      H4091   1.045       .  S
C4082      C4083   1.401       .  A
C4083      H4089   1.082       .  S
N4084      C4085   1.358       .  A
N4084      H4092   1.045       .  S
C4085      C4086   1.394       .  A
C4086      H4090   1.083       .  S
C4093      C4098   1.384       .  A
C4093      C4094   1.403       .  A
C4093      N4099   1.340       .  A
C4094      C4095   1.400       .  A
C4094      H4105   1.082       .  S
C4095      C4104   1.379       .  A
C4095      C4096   1.384       .  A
C4096      C4097   1.410       .  A
C4096      N4102   1.346       .  A
C4097      C4098   1.408       .  A
C4097      H4106   1.082       .  S
C4098      C4101   1.388       .  A
N4099      C4100   1.356       .  A
N4099      H4109   1.044       .  S
C4100      C4101   1.398       .  A
C4101      H4107   1.082       .  S
N4102      C4103   1.358       .  A
N4102      H4110   1.045       .  S
C4103      C4104   1.393       .  A
C4104      H4108   1.082       .  S
C4111      C4116   1.385       .  A
C4111      C4112   1.404       .  A
C4111      N4117   1.347       .  A
C4112      C4113   1.404       .  A
C4112      H4123   1.083       .  S
C4113      C4122   1.375       .  A
C4113      C4114   1.385       .  A
C4114      C4115   1.403       .  A
C4114      N4120   1.346       .  A
C4115      C4116   1.403       .  A
C4115      H4124   1.082       .  S
C4116      C4119   1.376       .  A
N4117      C4118   1.356       .  A
N4117      H4127   1.045       .  S
C4118      C4119   1.395       .  A
C4119      H4125   1.082       .  S
N4120      C4121   1.354       .  A
N4120      H4128   1.045       .  S
C4121      C4122   1.396       .  A
C4122      H4126   1.083       .  S
C4129      C4134   1.385       .  A
C4129      C4130   1.406       .  A
C4129      N4135   1.345       .  A
C4130      C4131   1.406       .  A
C4130      H4141   1.082       .  S
C4131      C4140   1.382       .  A
C4131      C4132   1.385       .  A
C4132      C4133   1.400       .  A
C4132      N4138   1.341       .  A
C4133      C4134   1.399       .  A
C4133      H4142   1.082       .  S
C4134      C4137   1.373       .  A
N4135      C4136   1.356       .  A
N4135      H4145   1.045       .  S
C4136      C4137   1.392       .  A
C4137      H4143   1.083       .  S
N4138      C4139   1.354       .  A
N4138      H4146   1.045       .  S
C4139      C4140   1.397       .  A
C4140      H4144   1.082       .  S
C4147      C4152   1.386       .  A
C4147      C4148   1.404       .  A
C4147      N4153   1.346       .  A
C4148      C4149   1.403       .  A
C4148      H4159   1.082       .  S
C4149      C4158   1.377       .  A
C4149      C4150   1.385       .  A
C4150      C4151   1.400       .  A
C4150      N4156   1.343       .  A
C4151      C4152   1.401       .  A
C4151      H4160   1.083       .  S
C4152      C4155   1.372       .  A
N4153      C4154   1.354       .  A
N4153      H4163   1.046       .  S
C4154      C4155   1.395       .  A
C4155      H4161   1.083       .  S
N4156      C4157   1.354       .  A
N4156      H4164   1.045       .  S
C4157      C4158   1.395       .  A
C4158      H4162   1.082       .  S
C4165      C4170   1.385       .  A
C4165      C4166   1.402       .  A
C4165      N4171   1.348       .  A
C4166      C4167   1.404       .  A
C4166      H4177   1.082       .  S
C4167      C4176   1.373       .  A
C4167      C4168   1.385       .  A
C4168      C4169   1.407       .  A
C4168      N4174   1.351       .  A
C4169      C4170   1.408       .  A
C4169      H4178   1.082       .  S
C4170      C4173   1.378       .  A
N4171      C4172   1.355       .  A
N4171      H4181   1.044       .  S
C4172      C4173   1.397       .  A
C4173      H4179   1.082       .  S
N4174      C4175   1.358       .  A
N4174      H4182   1.045       .  S
C4175      C4176   1.394       .  A
C4176      H4180   1.083       .  S
C4183      C4188   1.384       .  A
C4183      C4184   1.413       .  A
C4183      N4189   1.351       .  A
C4184      C4185   1.412       .  A
C4184      H4195   1.082       .  S
C4185      C4194   1.390       .  A
C4185      C4186   1.384       .  A
C4186      C4187   1.396       .  A
C4186      N4192   1.336       .  A
C4187      C4188   1.395       .  A
C4187      H4196   1.083       .  S
C4188      C4191   1.370       .  A
N4189      C4190   1.360       .  A
N4189      H4199   1.045       .  S
C4190      C4191   1.392       .  A
C4191      H4197   1.083       .  S
N4192      C4193   1.352       .  A
N4192      H4200   1.045       .  S
C4193      C4194   1.401       .  A
C4194      H4198   1.082       .  S
C4201      C4206   1.385       .  A
C4201      C4202   1.404       .  A
C4201      N4207   1.346       .  A
C4202      C4203   1.405       .  A
C4202      H4213   1.082       .  S
C4203      C4212   1.377       .  A
C4203      C4204   1.385       .  A
C4204      C4205   1.400       .  A
C4204      N4210   1.344       .  A
C4205      C4206   1.400       .  A
C4205      H4214   1.082       .  S
C4206      C4209   1.372       .  A
N4207      C4208   1.355       .  A
N4207      H4217   1.045       .  S
C4208      C4209   1.394       .  A
C4209      H4215   1.083       .  S
N4210      C4211   1.353       .  A
N4210      H4218   1.044       .  S
C4211      C4212   1.396       .  A
C4212      H4216   1.083       .  S
C4219      C4224   1.385       .  A
C4219      C4220   1.397       .  A
C4219      N4225   1.338       .  A
C4220      C4221   1.396       .  A
C4220      H4231   1.083       .  S
C4221      C4230   1.368       .  A
C4221      C4222   1.384       .  A
C4222      C4223   1.411       .  A
C4222      N4228   1.351       .  A
C4223      C4224   1.411       .  A
C4223      H4232   1.082       .  S
C4224      C4227   1.387       .  A
N4225      C4226   1.353       .  A
N4225      H4235   1.045       .  S
C4226      C4227   1.399       .  A
C4227      H4233   1.082       .  S
N4228      C4229   1.359       .  A
N4228      H4236   1.045       .  S
C4229      C4230   1.391       .  A
C4230      H4234   1.083       .  S
C4237      C4242   1.384       .  A
C4237      C4238   1.407       .  A
C4237      N4243   1.347       .  A
C4238      C4239   1.406       .  A
C4238      H4249   1.082       .  S
C4239      C4248   1.383       .  A
C4239      C4240   1.384       .  A
C4240      C4241   1.405       .  A
C4240      N4246   1.345       .  A
C4241      C4242   1.405       .  A
C4241      H4250   1.082       .  S
C4242      C4245   1.380       .  A
N4243      C4244   1.357       .  A
N4243      H4253   1.045       .  S
C4244      C4245   1.397       .  A
C4245      H4251   1.082       .  S
N4246      C4247   1.357       .  A
N4246      H4254   1.045       .  S
C4247      C4248   1.397       .  A
C4248      H4252   1.082       .  S
C4255      C4260   1.385       .  A
C4255      C4256   1.402       .  A
C4255      N4261   1.339       .  A
C4256      C4257   1.399       .  A
C4256      H4267   1.082       .  S
C4257      C4266   1.379       .  A
C4257      C4258   1.384       .  A
C4258      C4259   1.411       .  A
C4258      N4264   1.346       .  A
C4259      C4260   1.409       .  A
C4259      H4268   1.082       .  S
C4260      C4263   1.390       .  A
N4261      C4262   1.354       .  A
N4261      H4271   1.044       .  S
C4262      C4263   1.400       .  A
C4263      H4269   1.082       .  S
N4264      C4265   1.359       .  A
N4264      H4272   1.045       .  S
C4265      C4266   1.393       .  A
C4266      H4270   1.082       .  S
C4273      C4278   1.384       .  A
C4273      C4274   1.404       .  A
C4273      N4279   1.340       .  A
C4274      C4275   1.401       .  A
C4274      H4285   1.082       .  S
C4275      C4284   1.380       .  A
C4275      C4276   1.384       .  A
C4276      C4277   1.409       .  A
C4276      N4282   1.346       .  A
C4277      C4278   1.407       .  A
C4277      H4286   1.082       .  S
C4278      C4281   1.388       .  A
N4279      C4280   1.356       .  A
N4279      H4289   1.045       .  S
C4280      C4281   1.398       .  A
C4281      H4287   1.082       .  S
N4282      C4283   1.358       .  A
N4282      H4290   1.045       .  S
C4283      C4284   1.394       .  A
C4284      H4288   1.082       .  S
C4291      C4296   1.384       .  A
C4291      C4292   1.399       .  A
C4291      N4297   1.337       .  A
C4292      C4293   1.396       .  A
C4292      H4303   1.083       .  S
C4293      C4302   1.375       .  A
C4293      C4294   1.385       .  A
C4294      C4295   1.409       .  A
C4294      N4300   1.344       .  A
C4295      C4296   1.407       .  A
C4295      H4304   1.082       .  S
C4296      C4299   1.388       .  A
N4297      C4298   1.354       .  A
N4297      H4307   1.045       .  S
C4298      C4299   1.398       .  A
C4299      H4305   1.082       .  S
N4300      C4301   1.358       .  A
N4300      H4308   1.046       .  S
C4301      C4302   1.390       .  A
C4302      H4306   1.082       .  S
C4309      C4314   1.384       .  A
C4309      C4310   1.406       .  A
C4309      N4315   1.343       .  A
C4310      C4311   1.403       .  A
C4310      H4321   1.082       .  S
C4311      C4320   1.384       .  A
C4311      C4312   1.384       .  A
C4312      C4313   1.406       .  A
C4312      N4318   1.341       .  A
C4313      C4314   1.403       .  A
C4313      H4322   1.082       .  S
C4314      C4317   1.383       .  A
N4315      C4316   1.356       .  A
N4315      H4325   1.046       .  S
C4316      C4317   1.397       .  A
C4317      H4323   1.082       .  S
N4318      C4319   1.357       .  A
N4318      H4326   1.044       .  S
C4319      C4320   1.394       .  A
C4320      H4324   1.082       .  S
C4327      C4332   1.384       .  A
C4327      C4328   1.402       .  A
C4327      N4333   1.342       .  A
C4328      C4329   1.401       .  A
C4328      H4339   1.082       .  S
C4329      C4338   1.376       .  A
C4329      C4330   1.384       .  A
C4330      C4331   1.407       .  A
C4330      N4336   1.346       .  A
C4331      C4332   1.407       .  A
C4331      H4340   1.082       .  S
C4332      C4335   1.383       .  A
N4333      C4334   1.355       .  A
N4333      H4343   1.044       .  S
C4334      C4335   1.398       .  A
C4335      H4341   1.082       .  S
N4336      C4337   1.357       .  A
N4336      H4344   1.045       .  S
C4337      C4338   1.394       .  A
C4338      H4342   1.082       .  S
C4345      C4350   1.384       .  A
C4345      C4346   1.407       .  A
C4345      N4351   1.344       .  A
C4346      C4347   1.405       .  A
C4346      H4357   1.082       .  S
C4347      C4356   1.385       .  A
C4347      C4348   1.384       .  A
C4348      C4349   1.405       .  A
C4348      N4354   1.342       .  A
C4349      C4350   1.402       .  A
C4349      H4358   1.082       .  S
C4350      C4353   1.381       .  A
N4351      C4352   1.357       .  A
N4351      H4361   1.045       .  S
C4352      C4353   1.395       .  A
C4353      H4359   1.082       .  S
N4354      C4355   1.357       .  A
N4354      H4362   1.045       .  S
C4355      C4356   1.396       .  A
C4356      H4360   1.082       .  S
C4363      C4368   1.385       .  A
C4363      C4364   1.406       .  A
C4363      N4369   1.342       .  A
C4364      C4365   1.404       .  A
C4364      H4375   1.082       .  S
C4365      C4374   1.385       .  A
C4365      C4366   1.384       .  A
C4366      C4367   1.403       .  A
C4366      N4372   1.339       .  A
C4367      C4368   1.399       .  A
C4367      H4376   1.082       .  S
C4368      C4371   1.378       .  A
N4369      C4370   1.356       .  A
N4369      H4379   1.045       .  S
C4370      C4371   1.393       .  A
C4371      H4377   1.083       .  S
N4372      C4373   1.356       .  A
N4372      H4380   1.044       .  S
C4373      C4374   1.396       .  A
C4374      H4378   1.082       .  S
C4381      C4386   1.384       .  A
C4381      C4382   1.410       .  A
C4381      N4387   1.348       .  A
C4382      C4383   1.409       .  A
C4382      H4393   1.082       .  S
C4383      C4392   1.389   1_556  A
C4383      C4384   1.384   1_556  A
C4384      C4385   1.401       .  A
C4384      N4390   1.339       .  A
C4385      C4386   1.399   1_554  A
C4385      H4394   1.083       .  S
C4386      C4389   1.375       .  A
N4387      C4388   1.357       .  A
N4387      H4397   1.045       .  S
C4388      C4389   1.394       .  A
C4389      H4395   1.083       .  S
N4390      C4391   1.355       .  A
N4390      H4398   1.045       .  S
C4391      C4392   1.400       .  A
C4392      H4396   1.082   1_554  S
C4399      C4404   1.385       .  A
C4399      C4400   1.406       .  A
C4399      N4405   1.349       .  A
C4400      C4401   1.407       .  A
C4400      H4411   1.082       .  S
C4401      C4410   1.379       .  A
C4401      C4402   1.385       .  A
C4402      C4403   1.399       .  A
C4402      N4408   1.343       .  A
C4403      C4404   1.399       .  A
C4403      H4412   1.083       .  S
C4404      C4407   1.370       .  A
N4405      C4406   1.356       .  A
N4405      H4415   1.045       .  S
C4406      C4407   1.393       .  A
C4407      H4413   1.083       .  S
N4408      C4409   1.353       .  A
N4408      H4416   1.045       .  S
C4409      C4410   1.397       .  A
C4410      H4414   1.082       .  S
C4417      C4422   1.385       .  A
C4417      C4418   1.407       .  A
C4417      N4423   1.349       .  A
C4418      C4419   1.407       .  A
C4418      H4429   1.082       .  S
C4419      C4428   1.380       .  A
C4419      C4420   1.385       .  A
C4420      C4421   1.399       .  A
C4420      N4426   1.343       .  A
C4421      C4422   1.400       .  A
C4421      H4430   1.083       .  S
C4422      C4425   1.370       .  A
N4423      C4424   1.357       .  A
N4423      H4433   1.045       .  S
C4424      C4425   1.393       .  A
C4425      H4431   1.083       .  S
N4426      C4427   1.353       .  A
N4426      H4434   1.044   1_554  S
C4427      C4428   1.397       .  A
C4428      H4432   1.082       .  S
C4435      C4440   1.385       .  A
C4435      C4436   1.404       .  A
C4435      N4441   1.344       .  A
C4436      C4437   1.403   1_565  A
C4436      H4447   1.082       .  S
C4437      C4446   1.378       .  A
C4437      C4438   1.385       .  A
C4438      C4439   1.399   1_545  A
C4438      N4444   1.341       .  A
C4439      C4440   1.399       .  A
C4439      H4448   1.082       .  S
C4440      C4443   1.373       .  A
N4441      C4442   1.355       .  A
N4441      H4451   1.046       .  S
C4442      C4443   1.393       .  A
C4443      H4449   1.082       .  S
N4444      C4445   1.353       .  A
N4444      H4452   1.045       .  S
C4445      C4446   1.394       .  A
C4446      H4450   1.082       .  S
C4453      C4458   1.384       .  A
C4453      C4454   1.405       .  A
C4453      N4459   1.342       .  A
C4454      C4455   1.403       .  A
C4454      H4465   1.082       .  S
C4455      C4464   1.381       .  A
C4455      C4456   1.384       .  A
C4456      C4457   1.406       .  A
C4456      N4462   1.344       .  A
C4457      C4458   1.404       .  A
C4457      H4466   1.082       .  S
C4458      C4461   1.383       .  A
N4459      C4460   1.356       .  A
N4459      H4469   1.045       .  S
C4460      C4461   1.394       .  A
C4461      H4467   1.082       .  S
N4462      C4463   1.357       .  A
N4462      H4470   1.046       .  S
C4463      C4464   1.395       .  A
C4464      H4468   1.082       .  S
C4471      C4476   1.385       .  A
C4471      C4472   1.401       .  A
C4471      N4477   1.344       .  A
C4472      C4473   1.402       .  A
C4472      H4483   1.083       .  S
C4473      C4482   1.372       .  A
C4473      C4474   1.385       .  A
C4474      C4475   1.404       .  A
C4474      N4480   1.346       .  A
C4475      C4476   1.404       .  A
C4475      H4484   1.082       .  S
C4476      C4479   1.377       .  A
N4477      C4478   1.354       .  A
N4477      H4487   1.045       .  S
C4478      C4479   1.396       .  A
C4479      H4485   1.082       .  S
N4480      C4481   1.355       .  A
N4480      H4488   1.045       .  S
C4481      C4482   1.395       .  A
C4482      H4486   1.083       .  S
C4489      C4494   1.384       .  A
C4489      C4490   1.403       .  A
C4489      N4495   1.340       .  A
C4490      C4491   1.401       .  A
C4490      H4501   1.083       .  S
C4491      C4500   1.379       .  A
C4491      C4492   1.384       .  A
C4492      C4493   1.405       .  A
C4492      N4498   1.343       .  A
C4493      C4494   1.403       .  A
C4493      H4502   1.082       .  S
C4494      C4497   1.382       .  A
N4495      C4496   1.356       .  A
N4495      H4505   1.044       .  S
C4496      C4497   1.393       .  A
C4497      H4503   1.082       .  S
N4498      C4499   1.357       .  A
N4498      H4506   1.046       .  S
C4499      C4500   1.394       .  A
C4500      H4504   1.082       .  S
C4507      C4512   1.385       .  A
C4507      C4508   1.398       .  A
C4507      N4513   1.343       .  A
C4508      C4509   1.399       .  A
C4508      H4519   1.083       .  S
C4509      C4518   1.369       .  A
C4509      C4510   1.385       .  A
C4510      C4511   1.407       .  A
C4510      N4516   1.350       .  A
C4511      C4512   1.407       .  A
C4511      H4520   1.082       .  S
C4512      C4515   1.378       .  A
N4513      C4514   1.352       .  A
N4513      H4523   1.045       .  S
C4514      C4515   1.397       .  A
C4515      H4521   1.082       .  S
N4516      C4517   1.358       .  A
N4516      H4524   1.046       .  S
C4517      C4518   1.394       .  A
C4518      H4522   1.083       .  S
C4525      C4530   1.384       .  A
C4525      C4526   1.396       .  A
C4525      N4531   1.337       .  A
C4526      C4527   1.395       .  A
C4526      H4537   1.083       .  S
C4527      C4536   1.369       .  A
C4527      C4528   1.384       .  A
C4528      C4529   1.414       .  A
C4528      N4534   1.352       .  A
C4529      C4530   1.414       .  A
C4529      H4538   1.082       .  S
C4530      C4533   1.391       .  A
N4531      C4532   1.353       .  A
N4531      H4541   1.045       .  S
C4532      C4533   1.402       .  A
C4533      H4539   1.082       .  S
N4534      C4535   1.360       .  A
N4534      H4542   1.045       .  S
C4535      C4536   1.391       .  A
C4536      H4540   1.083       .  S
C4543      C4548   1.384       .  A
C4543      C4544   1.407       .  A
C4543      N4549   1.347       .  A
C4544      C4545   1.407       .  A
C4544      H4555   1.082       .  S
C4545      C4554   1.383       .  A
C4545      C4546   1.385       .  A
C4546      C4547   1.399       .  A
C4546      N4552   1.340       .  A
C4547      C4548   1.398       .  A
C4547      H4556   1.082       .  S
C4548      C4551   1.373       .  A
N4549      C4550   1.358       .  A
N4549      H4559   1.045       .  S
C4550      C4551   1.392       .  A
C4551      H4557   1.082       .  S
N4552      C4553   1.353       .  A
N4552      H4560   1.045       .  S
C4553      C4554   1.397       .  A
C4554      H4558   1.082       .  S
C4561      C4566   1.384       .  A
C4561      C4562   1.404       .  A
C4561      N4567   1.341       .  A
C4562      C4563   1.401       .  A
C4562      H4573   1.082       .  S
C4563      C4572   1.380       .  A
C4563      C4564   1.384       .  A
C4564      C4565   1.408       .  A
C4564      N4570   1.345       .  A
C4565      C4566   1.406       .  A
C4565      H4574   1.082       .  S
C4566      C4569   1.386       .  A
N4567      C4568   1.356       .  A
N4567      H4577   1.044       .  S
C4568      C4569   1.397       .  A
C4569      H4575   1.082       .  S
N4570      C4571   1.358       .  A
N4570      H4578   1.046       .  S
C4571      C4572   1.394       .  A
C4572      H4576   1.082       .  S
C4579      C4584   1.384       .  A
C4579      C4580   1.407       .  A
C4579      N4585   1.343       .  A
C4580      C4581   1.404       .  A
C4580      H4591   1.082       .  S
C4581      C4590   1.386       .  A
C4581      C4582   1.384       .  A
C4582      C4583   1.406       .  A
C4582      N4588   1.341       .  A
C4583      C4584   1.403       .  A
C4583      H4592   1.082       .  S
C4584      C4587   1.384       .  A
N4585      C4586   1.357       .  A
N4585      H4595   1.046       .  S
C4586      C4587   1.396       .  A
C4587      H4593   1.082       .  S
N4588      C4589   1.357       .  A
N4588      H4596   1.044       .  S
C4589      C4590   1.396       .  A
C4590      H4594   1.082       .  S
C4597      C4602   1.383       .  A
C4597      C4598   1.416       .  A
C4597      N4603   1.355       .  A
C4598      C4599   1.415       .  A
C4598      H4609   1.082       .  S
C4599      C4608   1.393   1_556  A
C4599      C4600   1.384   1_556  A
C4600      C4601   1.400       .  A
C4600      N4606   1.340       .  A
C4601      C4602   1.399   1_554  A
C4601      H4610   1.083       .  S
C4602      C4605   1.374       .  A
N4603      C4604   1.362       .  A
N4603      H4613   1.045       .  S
C4604      C4605   1.394       .  A
C4605      H4611   1.083       .  S
N4606      C4607   1.354       .  A
N4606      H4614   1.045       .  S
C4607      C4608   1.402       .  A
C4608      H4612   1.082   1_554  S
C4615      C4620   1.384       .  A
C4615      C4616   1.404       .  A
C4615      N4621   1.347       .  A
C4616      C4617   1.405       .  A
C4616      H4627   1.082       .  S
C4617      C4626   1.378       .  A
C4617      C4618   1.384       .  A
C4618      C4619   1.409       .  A
C4618      N4624   1.351       .  A
C4619      C4620   1.409       .  A
C4619      H4628   1.082       .  S
C4620      C4623   1.383       .  A
N4621      C4622   1.356       .  A
N4621      H4631   1.045       .  S
C4622      C4623   1.399       .  A
C4623      H4629   1.082       .  S
N4624      C4625   1.358       .  A
N4624      H4632   1.045       .  S
C4625      C4626   1.398       .  A
C4626      H4630   1.083       .  S
C4633      C4638   1.385       .  A
C4633      C4634   1.408       .  A
C4633      N4639   1.349       .  A
C4634      C4635   1.408       .  A
C4634      H4645   1.082       .  S
C4635      C4644   1.383       .  A
C4635      C4636   1.385       .  A
C4636      C4637   1.399       .  A
C4636      N4642   1.342       .  A
C4637      C4638   1.399       .  A
C4637      H4646   1.083       .  S
C4638      C4641   1.371       .  A
N4639      C4640   1.356       .  A
N4639      H4649   1.045       .  S
C4640      C4641   1.393       .  A
C4641      H4647   1.083       .  S
N4642      C4643   1.353       .  A
N4642      H4650   1.045   1_554  S
C4643      C4644   1.400       .  A
C4644      H4648   1.082       .  S
C4651      C4656   1.384       .  A
C4651      C4652   1.398       .  A
C4651      N4657   1.338       .  A
C4652      C4653   1.397       .  A
C4652      H4663   1.083       .  S
C4653      C4662   1.372       .  A
C4653      C4654   1.384       .  A
C4654      C4655   1.410       .  A
C4654      N4660   1.350       .  A
C4655      C4656   1.409       .  A
C4655      H4664   1.082       .  S
C4656      C4659   1.387       .  A
N4657      C4658   1.353       .  A
N4657      H4667   1.045       .  S
C4658      C4659   1.399       .  A
C4659      H4665   1.082       .  S
N4660      C4661   1.359       .  A
N4660      H4668   1.045       .  S
C4661      C4662   1.393       .  A
C4662      H4666   1.083       .  S
C4669      C4674   1.384       .  A
C4669      C4670   1.408       .  A
C4669      N4675   1.350       .  A
C4670      C4671   1.407       .  A
C4670      H4681   1.082       .  S
C4671      C4680   1.382       .  A
C4671      C4672   1.384       .  A
C4672      C4673   1.406       .  A
C4672      N4678   1.347       .  A
C4673      C4674   1.406       .  A
C4673      H4682   1.082       .  S
C4674      C4677   1.381       .  A
N4675      C4676   1.359       .  A
N4675      H4685   1.045       .  S
C4676      C4677   1.398       .  A
C4677      H4683   1.082       .  S
N4678      C4679   1.357       .  A
N4678      H4686   1.045       .  S
C4679      C4680   1.397       .  A
C4680      H4684   1.082       .  S
C4687      C4692   1.384       .  A
C4687      C4688   1.403       .  A
C4687      N4693   1.338       .  A
C4688      C4689   1.399       .  A
C4688      H4699   1.082       .  S
C4689      C4698   1.382       .  A
C4689      C4690   1.384       .  A
C4690      C4691   1.409       .  A
C4690      N4696   1.343       .  A
C4691      C4692   1.406       .  A
C4691      H4700   1.082       .  S
C4692      C4695   1.389       .  A
N4693      C4694   1.354       .  A
N4693      H4703   1.045       .  S
C4694      C4695   1.398       .  A
C4695      H4701   1.082       .  S
N4696      C4697   1.357       .  A
N4696      H4704   1.045       .  S
C4697      C4698   1.394       .  A
C4698      H4702   1.082       .  S
