geometry optimzed in LAMMPS
_audit_creation_date              2020-12-01 
_audit_creation_method            'lammps2cif' 
_symmetry_space_group_name_H-M    'P1' 
_symmetry_Int_Tables_number       1 
_symmetry_cell_setting            triclinic 
loop_ 
_symmetry_equiv_pos_as_xyz 
  x,y,z 
_cell_length_a                    47.26909342 
_cell_length_b                    47.27488065012343 
_cell_length_c                    24.314170704416327 
_cell_angle_alpha                 89.98995635561562 
_cell_angle_beta                  90.02836286243193 
_cell_angle_gamma                 89.95237695552136 
loop_ 
_atom_site_label 
_atom_site_type_symbol 
_atom_site_fract_x 
_atom_site_fract_y 
_atom_site_fract_z 
_atom_site_charge 
C1          C  0.10903019  0.10775152  0.21965292     0.31600
C2          C  0.14253277  0.14147426  0.27924382     0.31600
C3          C  0.13743352  0.11521933  0.19221559    -0.04600
C4          C  0.09628504  0.13675398  0.23369899    -0.05400
C5          C  0.11764325  0.09580593  0.27601466    -0.05200
C6          C  0.15461603  0.13279986  0.22301926    -0.04600
C7          C  0.11351495  0.15408419  0.26480355    -0.05400
C8          C  0.13510859  0.11308420  0.30685742    -0.05200
C9          C  0.17853874  0.13827395  0.19207041    -0.30600
N10         N  0.17658591  0.12421070  0.14321413     0.15900
C11         C  0.15142492  0.11000006  0.14310767    -0.30600
H12         H  0.14385549  0.09683426  0.10980892     0.17800
C13         C  0.09883842  0.17894770  0.27397200    -0.29600
N14         N  0.07318510  0.17732896  0.24843433     0.14600
C15         C  0.07153686  0.15150222  0.22361473    -0.29600
C16         C  0.14033553  0.09910383  0.35602176    -0.29900
N17         N  0.12622983  0.07387566  0.35586335     0.15100
H18         H  0.15344378  0.10672026  0.38937461     0.17700
C19         C  0.11223657  0.07186759  0.30694167    -0.29900
H20         H  0.09898113  0.05428091  0.29480525     0.17700
H21         H  0.05370900  0.14406091  0.19971706     0.17700
H22         H  0.19606781  0.15162409  0.20413805     0.17800
H23         H  0.10628027  0.19689484  0.29750861     0.17700
N24         N  0.99980129  0.20706397  0.24472827    -0.35000
N25         N  0.45604090  0.25063789  0.24917394    -0.55600
N26         N  0.99975723  0.29421660  0.24486105    -0.35000
N27         N  0.04351822  0.25064450  0.24911303    -0.55600
C28         C  0.47665960  0.19171417  0.25880848     0.28600
C29         C  0.02297159  0.19171830  0.25884272     0.28600
C30         C  0.47660062  0.30954965  0.25904069     0.28600
C31         C  0.02290795  0.30956173  0.25892812     0.28600
C32         C  0.44017035  0.22764664  0.23663245     0.37200
C33         C  0.44014375  0.27365839  0.23676878     0.37200
C34         C  0.05940661  0.22763559  0.23662386     0.37200
C35         C  0.05937718  0.27364974  0.23661636     0.37200
C36         C  0.48524742  0.16649883  0.28266606    -0.20300
C37         C  0.01443138  0.16650176  0.28268927    -0.20300
C38         C  0.48515784  0.33475252  0.28291929    -0.20300
C39         C  0.01434129  0.33476152  0.28284203    -0.20300
C40         C  0.41428318  0.23612385  0.21556327    -0.21300
C41         C  0.41426419  0.26523318  0.21566079    -0.21300
C42         C  0.08526680  0.23608530  0.21550428    -0.21300
C43         C  0.08524681  0.26519489  0.21549452    -0.21300
C44         C  0.44810848  0.19922413  0.24757556    -0.16700
C45         C  0.05150686  0.19922084  0.24761784    -0.16700
C46         C  0.05144584  0.30206406  0.24762805    -0.16700
C47         C  0.44806059  0.30205978  0.24781232    -0.16700
H48         H  0.47191539  0.14979029  0.29852468     0.16200
H49         H  0.02779558  0.14979397  0.29856316     0.16200
H50         H  0.47180437  0.35144976  0.29883364     0.16200
H51         H  0.02768764  0.35146426  0.29869318     0.16200
H52         H  0.39717581  0.22279372  0.20139221     0.14500
H53         H  0.39714043  0.27859869  0.20158026     0.14500
H54         H  0.10237975  0.22273587  0.20135985     0.14500
H55         H  0.10234120  0.27854110  0.20134517     0.14500
H56         H  0.99978417  0.22550117  0.22130235     0.27800
H57         H  0.99975401  0.27579860  0.22139067     0.27800
C58         C  0.39064147  0.39357684  0.21978154     0.31600
C59         C  0.35715448  0.35993908  0.27953595     0.31600
C60         C  0.36218627  0.38614475  0.19243050    -0.04600
C61         C  0.40334618  0.36455756  0.23385165    -0.05400
C62         C  0.38213251  0.40555595  0.27616516    -0.05200
C63         C  0.34501482  0.36861057  0.22333053    -0.04600
C64         C  0.38612605  0.34726608  0.26503681    -0.05400
C65         C  0.36467481  0.38831484  0.30708077    -0.05200
C66         C  0.32107943  0.36308534  0.19240827    -0.30600
N67         N  0.32300367  0.37707347  0.14346059     0.15900
C68         C  0.34816841  0.39128510  0.14327745    -0.30600
H69         H  0.35573449  0.40438173  0.10987924     0.17800
C70         C  0.40077495  0.32238322  0.27421752    -0.29600
N71         N  0.42640155  0.32396301  0.24861986     0.14600
C72         C  0.42806015  0.34977538  0.22374352    -0.29600
C73         C  0.35956556  0.40228207  0.35628038    -0.29900
N74         N  0.37372793  0.42747486  0.35608374     0.15100
H75         H  0.34648883  0.39468510  0.38967689     0.17700
C76         C  0.38765055  0.42946905  0.30710174    -0.29900
H77         H  0.40092121  0.44703362  0.29492085     0.17700
H78         H  0.44587586  0.35718554  0.19980381     0.17700
H79         H  0.30357123  0.34972897  0.20454022     0.17800
H80         H  0.39333760  0.30445366  0.29780810     0.17700
N81         N  0.12458895  0.00062205  0.41490211    -0.35000
N82         N  0.12702667  0.04466599  0.49950382    -0.55600
N83         N  0.12453490  0.00062031  0.58406472    -0.35000
N84         N  0.12684311  0.45656687  0.49946577    -0.55600
C85         C  0.13155691  0.02379594  0.38471041     0.28600
C86         C  0.13144517  0.47741690  0.38468255     0.28600
C87         C  0.13145293  0.02378324  0.61431584     0.28600
C88         C  0.13139189  0.47741601  0.61429394     0.28600
C89         C  0.12136704  0.06081242  0.45465358     0.37200
C90         C  0.12132518  0.06080189  0.54432847     0.37200
C91         C  0.12111227  0.44045272  0.45462721     0.37200
C92         C  0.12110378  0.44046014  0.54430812     0.37200
C93         C  0.14317039  0.01515527  0.33515399    -0.20300
C94         C  0.14309809  0.48600422  0.33513449    -0.20300
C95         C  0.14302638  0.01513999  0.66393126    -0.20300
C96         C  0.14299052  0.48599164  0.66391609    -0.20300
C97         C  0.11180130  0.08718983  0.47113749    -0.21300
C98         C  0.11177982  0.08718424  0.52781160    -0.21300
C99         C  0.11145758  0.41412512  0.47113479    -0.21300
C100        C  0.11145704  0.41412887  0.52781670    -0.21300
C101        C  0.12628206  0.05251801  0.39922417    -0.16700
C102        C  0.12606228  0.44872166  0.39919185    -0.16700
C103        C  0.12604753  0.44872854  0.59974434    -0.16700
C104        C  0.12619484  0.05249868  0.59977719    -0.16700
H105        H  0.15101744  0.02845198  0.30231674     0.16200
H106        H  0.15088235  0.47267294  0.30228283     0.16200
H107        H  0.15082817  0.02843331  0.69682048     0.16200
H108        H  0.15075873  0.47265376  0.69679581     0.16200
H109        H  0.10536879  0.10463755  0.44518213     0.14500
H110        H  0.10533666  0.10462596  0.55375087     0.14500
H111        H  0.10497101  0.39670996  0.44518478     0.14500
H112        H  0.10497771  0.39671744  0.55378477     0.14500
H113        H  0.11302263  0.00065309  0.45131418     0.27800
H114        H  0.11300355  0.00065204  0.54757736     0.27800
N115        N  0.37526311  0.00073969  0.41506714    -0.35000
N116        N  0.37289500  0.45668580  0.49968414    -0.55600
N117        N  0.37525824  0.00071827  0.58426759    -0.35000
N118        N  0.37288760  0.04477530  0.49962057    -0.55600
C119        C  0.36836381  0.47754902  0.38487186     0.28600
C120        C  0.36831890  0.02392555  0.38484292     0.28600
C121        C  0.36833096  0.47754445  0.61448281     0.28600
C122        C  0.36837217  0.02391620  0.61445904     0.28600
C123        C  0.37862817  0.44055853  0.45486476     0.37200
C124        C  0.37855275  0.44054400  0.54454385     0.37200
C125        C  0.37854026  0.06091879  0.45478359     0.37200
C126        C  0.37858154  0.06089753  0.54446233     0.37200
C127        C  0.35670789  0.48615751  0.33530401    -0.20300
C128        C  0.35668121  0.01530654  0.33528427    -0.20300
C129        C  0.35672965  0.48617899  0.66405555    -0.20300
C130        C  0.35676025  0.01532688  0.66404469    -0.20300
C131        C  0.38821260  0.41419095  0.47140515    -0.21300
C132        C  0.38815466  0.41417884  0.52808507    -0.21300
C133        C  0.38810337  0.08727948  0.47129177    -0.21300
C134        C  0.38812783  0.08726601  0.52797105    -0.21300
C135        C  0.37370769  0.44884180  0.39941261    -0.16700
C136        C  0.37360522  0.05263778  0.39934770    -0.16700
C137        C  0.37365989  0.05261630  0.59989440    -0.16700
C138        C  0.37358696  0.44882494  0.59995877    -0.16700
H139        H  0.34888471  0.47284202  0.30246856     0.16200
H140        H  0.34883516  0.02861527  0.30242978     0.16200
H141        H  0.34890226  0.47288168  0.69690872     0.16200
H142        H  0.34896096  0.02865541  0.69688670     0.16200
H143        H  0.39468261  0.39675488  0.44547806     0.14500
H144        H  0.39457044  0.39673562  0.55407163     0.14500
H145        H  0.39451533  0.10472386  0.44534701     0.14500
H146        H  0.39455021  0.10469996  0.55393584     0.14500
H147        H  0.38683600  0.00073914  0.45150560     0.27800
H148        H  0.38680231  0.00070244  0.54779601     0.27800
C149        C  0.14264955  0.35983743  0.71967934     0.31600
C150        C  0.10885502  0.39334113  0.77911480     0.31600
C151        C  0.13514178  0.38822663  0.69214324    -0.04600
C152        C  0.11365242  0.34708984  0.73366608    -0.05400
C153        C  0.15455938  0.36846199  0.77605813    -0.05200
C154        C  0.11752745  0.40539904  0.72289230    -0.04600
C155        C  0.09627675  0.36432714  0.76471989    -0.05400
C156        C  0.13723929  0.38592143  0.80681753    -0.05200
C157        C  0.11197991  0.42930788  0.69191961    -0.30600
N158        N  0.12602795  0.42736198  0.64306909     0.15900
C159        C  0.14030690  0.40221511  0.64298842    -0.30600
H160        H  0.15347217  0.39465365  0.60967860     0.17800
C161        C  0.07141585  0.34967124  0.77378071    -0.29600
N162        N  0.07306141  0.32403559  0.74820116     0.14600
C163        C  0.09891359  0.32237881  0.72346533    -0.29600
C164        C  0.15117954  0.39115178  0.85602414    -0.29900
N165        N  0.17644219  0.37706281  0.85596237     0.15100
H166        H  0.14351542  0.40425955  0.88933203     0.17700
C167        C  0.17850455  0.36307404  0.80705819    -0.29900
H168        H  0.19613537  0.34984095  0.79497358     0.17700
H169        H  0.10637685  0.30457446  0.69952704     0.17700
H170        H  0.09858568  0.44682418  0.70396165     0.17800
H171        H  0.05344836  0.35712104  0.79726452     0.17700
N172        N  0.04333881  0.25067464  0.74421505    -0.35000
N173        N  0.49974320  0.29444462  0.74913785    -0.55600
N174        N  0.45614788  0.25072682  0.74463578    -0.35000
N175        N  0.49974440  0.20695779  0.74882736    -0.55600
C176        C  0.05872231  0.27381096  0.75828603     0.28600
C177        C  0.05872290  0.22750273  0.75823454     0.28600
C178        C  0.44079014  0.27387518  0.75884920     0.28600
C179        C  0.44078015  0.22756904  0.75861342     0.28600
C180        C  0.02272778  0.31033224  0.73660997     0.37200
C181        C  0.47670814  0.31036519  0.73689643     0.37200
C182        C  0.02274795  0.19104569  0.73637086     0.37200
C183        C  0.47672365  0.19107955  0.73646390     0.37200
C184        C  0.08397780  0.26521464  0.78196752    -0.20300
C185        C  0.08397751  0.23604130  0.78193898    -0.20300
C186        C  0.41556730  0.26530138  0.78259103    -0.20300
C187        C  0.41555958  0.23612690  0.78243679    -0.20300
C188        C  0.01422851  0.33624900  0.71574477    -0.21300
C189        C  0.48512092  0.33627178  0.71593493    -0.21300
C190        C  0.01427613  0.16515329  0.71543255    -0.21300
C191        C  0.48516688  0.16517649  0.71548338    -0.21300
C192        C  0.05117596  0.30237507  0.74730795    -0.16700
C193        C  0.05118675  0.19895908  0.74717270    -0.16700
C194        C  0.44830118  0.19902590  0.74741372    -0.16700
C195        C  0.44829847  0.30243039  0.74784461    -0.16700
H196        H  0.10069930  0.27853218  0.79783889     0.16200
H197        H  0.10070066  0.22268570  0.79778073     0.16200
H198        H  0.39886312  0.27863611  0.79853545     0.16200
H199        H  0.39885112  0.22278280  0.79825351     0.16200
H200        H  0.02754326  0.35336680  0.70159203     0.14500
H201        H  0.47174895  0.35340858  0.70194728     0.14500
H202        H  0.02761063  0.14802074  0.70132773     0.14500
H203        H  0.47181294  0.14806418  0.70143093     0.14500
H204        H  0.02487581  0.25070033  0.72097574     0.27800
H205        H  0.47456709  0.25074225  0.72130217     0.27800
C206        C  0.39069552  0.10803584  0.77924633     0.31600
C207        C  0.35686221  0.14148459  0.71974152     0.31600
C208        C  0.36228959  0.11538328  0.80686546    -0.04600
C209        C  0.40322955  0.13707027  0.76490158    -0.05400
C210        C  0.38206651  0.09597257  0.72300798    -0.05200
C211        C  0.34494618  0.13281976  0.77607250    -0.04600
C212        C  0.38583216  0.15428722  0.73381632    -0.05400
C213        C  0.36442744  0.11311427  0.69220998    -0.05200
C214        C  0.32096680  0.13812263  0.80698192    -0.30600
N215        N  0.32303596  0.12410036  0.85586323     0.15900
C216        C  0.34833196  0.11007232  0.85599196    -0.30600
H217        H  0.35601008  0.09695464  0.88929681     0.17800
C218        C  0.40055122  0.17901152  0.72360764    -0.29600
N219        N  0.42641643  0.17736782  0.74834871     0.14600
C220        C  0.42808829  0.15173670  0.77395057    -0.29600
C221        C  0.35929288  0.09910941  0.64305739    -0.29900
N222        N  0.37362095  0.07398800  0.64319521     0.15100
H223        H  0.34611403  0.10664199  0.60971282     0.17700
C224        C  0.38766523  0.07207300  0.69207851    -0.29900
H225        H  0.40108969  0.05458287  0.70417478     0.17700
H226        H  0.44608024  0.14429072  0.79740788     0.17700
H227        H  0.30331261  0.15132481  0.79485582     0.17800
H228        H  0.39307406  0.19680800  0.69963673     0.17700
N229        N  0.24973315  0.37548634  0.08427671    -0.35000
N230        N  0.20564280  0.37794113  0.99964236    -0.55600
N231        N  0.24970654  0.37567710  0.91515174    -0.35000
N232        N  0.29379507  0.37806739  0.99978667    -0.55600
C233        C  0.22652565  0.38231319  0.11452888     0.28600
C234        C  0.27290555  0.38233995  0.11462632     0.28600
C235        C  0.22649913  0.38255998  0.88489397     0.28600
C236        C  0.27288692  0.38262616  0.88495866     0.28600
C237        C  0.18954106  0.37216060  0.04445992     0.37200
C238        C  0.18952073  0.37223710  0.95478332     0.37200
C239        C  0.30992389  0.37229059  0.04462601     0.37200
C240        C  0.30991634  0.37238180  0.95493035     0.37200
C241        C  0.23510919  0.39382691  0.16420543    -0.20300
C242        C  0.26426005  0.39384148  0.16426934    -0.20300
C243        C  0.23509195  0.39422051  0.83535957    -0.20300
C244        C  0.26424809  0.39426344  0.83540083    -0.20300
C245        C  0.16320184  0.36253441  0.02792730    -0.21300
C246        C  0.16319045  0.36257695  0.97125104    -0.21300
C247        C  0.33628044  0.36268837  0.02810530    -0.21300
C248        C  0.33627437  0.36274066  0.97142595    -0.21300
C249        C  0.19782829  0.37700800  0.09992169    -0.16700
C250        C  0.30162799  0.37709547  0.10009864    -0.16700
C251        C  0.30160905  0.37729762  0.89947846    -0.16700
C252        C  0.19779770  0.37717373  0.89935701    -0.16700
H253        H  0.22177594  0.40156212  0.19709556     0.16200
H254        H  0.27754969  0.40159612  0.19721385     0.16200
H255        H  0.22175929  0.40201993  0.80249397     0.16200
H256        H  0.27755020  0.40210071  0.80256857     0.16200
H257        H  0.14579711  0.35601508  0.05386355     0.14500
H258        H  0.14577584  0.35609181  0.94528018     0.14500
H259        H  0.35370393  0.35616316  0.05404908     0.14500
H260        H  0.35369405  0.35626025  0.94547047     0.14500
H261        H  0.24975718  0.36404188  0.04779243     0.27800
H262        H  0.24973377  0.36410611  0.95152496     0.27800
N263        N  0.24981730  0.12562184  0.08409657    -0.35000
N264        N  0.29387920  0.12314256  0.99952166    -0.55600
N265        N  0.24978211  0.12542322  0.91497232    -0.35000
N266        N  0.20572104  0.12306534  0.99956602    -0.55600
C267        C  0.27302246  0.11880358  0.11438744     0.28600
C268        C  0.22664985  0.11880749  0.11442631     0.28600
C269        C  0.27297985  0.11856463  0.88472497     0.28600
C270        C  0.22658781  0.11851565  0.88474983     0.28600
C271        C  0.30998933  0.12893885  0.04435145     0.37200
C272        C  0.30998137  0.12886379  0.95467054     0.37200
C273        C  0.18962525  0.12889137  0.04438833     0.37200
C274        C  0.18959259  0.12878159  0.95470139     0.37200
C275        C  0.26444323  0.10731832  0.16408851    -0.20300
C276        C  0.23529223  0.10732464  0.16411653    -0.20300
C277        C  0.26436696  0.10695190  0.83514659    -0.20300
C278        C  0.23520784  0.10691855  0.83516408    -0.20300
C279        C  0.33631671  0.13858238  0.02783533    -0.21300
C280        C  0.33631001  0.13854298  0.97116019    -0.21300
C281        C  0.16328095  0.13854421  0.02785171    -0.21300
C282        C  0.16326150  0.13848114  0.97117538    -0.21300
C283        C  0.30171194  0.12411750  0.09981877    -0.16700
C284        C  0.19793808  0.12410139  0.09987026    -0.16700
C285        C  0.19787328  0.12386859  0.89925665    -0.16700
C286        C  0.30168720  0.12394653  0.89922799    -0.16700
H287        H  0.27777911  0.09960421  0.19702450     0.16200
H288        H  0.22199948  0.09961290  0.19707468     0.16200
H289        H  0.27768741  0.09918609  0.80226290     0.16200
H290        H  0.22189188  0.09912501  0.80229260     0.16200
H291        H  0.35372126  0.14512263  0.05378137     0.14500
H292        H  0.35370957  0.14505549  0.94520649     0.14500
H293        H  0.14588539  0.14511510  0.05378547     0.14500
H294        H  0.14584671  0.14500256  0.94520819     0.14500
H295        H  0.24979192  0.13706585  0.04756258     0.27800
H296        H  0.24977199  0.13697108  0.95138799     0.27800
C297        C  0.35680813  0.35995231  0.71989303     0.31600
C298        C  0.39054236  0.39342798  0.77944300     0.31600
C299        C  0.34484491  0.36860900  0.77621549    -0.04600
C300        C  0.38579602  0.34718775  0.73405307    -0.05400
C301        C  0.36432414  0.38833423  0.69234023    -0.05200
C302        C  0.36214195  0.38606183  0.80703644    -0.04600
C303        C  0.40313289  0.36440217  0.76514856    -0.05400
C304        C  0.38191274  0.40548830  0.72317683    -0.05200
C305        C  0.34819581  0.39128662  0.85621688    -0.30600
N306        N  0.32295361  0.37720357  0.85609854     0.15900
C307        C  0.32091065  0.36322046  0.80717728    -0.30600
H308        H  0.30330773  0.34997751  0.79506831     0.17800
C309        C  0.42800446  0.34972950  0.77432590    -0.29600
N310        N  0.42638772  0.32409324  0.74876256     0.14600
C311        C  0.40055183  0.32245769  0.72393462    -0.29600
C312        C  0.38751772  0.42937124  0.69221877    -0.29900
N313        N  0.37352301  0.42745291  0.64328648     0.15100
H314        H  0.40092181  0.44685071  0.70432488     0.17700
C315        C  0.35923101  0.40233022  0.64313278    -0.29900
H316        H  0.34610921  0.39478744  0.60973666     0.17700
H317        H  0.39311791  0.30466126  0.69995846     0.17700
H318        H  0.35584980  0.40437318  0.88956027     0.17800
H319        H  0.44596483  0.35717577  0.79783716     0.17700
C320        C  0.35714077  0.14153464  0.27919501     0.31600
C321        C  0.39066130  0.10778132  0.21967803     0.31600
C322        C  0.34505818  0.13284466  0.22297259    -0.04600
C323        C  0.38614060  0.15414351  0.26475444    -0.05400
C324        C  0.36462335  0.11315974  0.30685654    -0.05200
C325        C  0.36224820  0.11525123  0.19221552    -0.04600
C326        C  0.40338948  0.13678455  0.23366992    -0.05400
C327        C  0.38209374  0.09587017  0.27605565    -0.05200
C328        C  0.34825614  0.11001594  0.14309740    -0.30600
N329        N  0.32308016  0.12423703  0.14316175     0.15900
C330        C  0.32112137  0.13831734  0.19199457    -0.30600
H331        H  0.30357629  0.15167561  0.20402818     0.17800
C332        C  0.42812039  0.15151031  0.22359892    -0.29600
N333        N  0.42645221  0.17734512  0.24839461     0.14600
C334        C  0.40080193  0.17899245  0.27391021    -0.29600
C335        C  0.38757521  0.07195601  0.30704296    -0.29900
N336        N  0.37362059  0.07399253  0.35597732     0.15100
H337        H  0.40085303  0.05436384  0.29493323     0.17700
C338        C  0.35946496  0.09921593  0.35607616    -0.29900
H339        H  0.34636728  0.10685347  0.38942042     0.17700
H340        H  0.39335484  0.19694878  0.29743206     0.17700
H341        H  0.35583415  0.09683368  0.10982471     0.17800
H342        H  0.44595088  0.14404883  0.19973364     0.17700
C343        C  0.14269882  0.14139807  0.71962229     0.31600
C344        C  0.10889313  0.10793961  0.77906295     0.31600
C345        C  0.15460210  0.13275972  0.77602270    -0.04600
C346        C  0.11368901  0.15416760  0.73356757    -0.05400
C347        C  0.13522172  0.11300325  0.69212252    -0.05200
C348        C  0.13727406  0.11531843  0.80678830    -0.04600
C349        C  0.09632357  0.13696198  0.76460753    -0.05400
C350        C  0.11759606  0.09585057  0.72287292    -0.05200
C351        C  0.15123446  0.11001715  0.85595379    -0.30600
N352        N  0.17651073  0.12404165  0.85587348     0.15900
C353        C  0.17856301  0.13806429  0.80699523    -0.30600
H354        H  0.19620271  0.15125542  0.79490020     0.17800
C355        C  0.07144848  0.15163993  0.77364875    -0.29600
N356        N  0.07308062  0.17727177  0.74806049     0.14600
C357        C  0.09893628  0.17889819  0.72334129    -0.29600
C358        C  0.11209446  0.07193493  0.69193378    -0.29900
N359        N  0.12617724  0.07385310  0.64311520     0.15100
H360        H  0.09870051  0.05443749  0.70396817     0.17700
C361        C  0.14043735  0.09898827  0.64302295    -0.29900
H362        H  0.15361948  0.10652818  0.60973394     0.17700
H363        H  0.10639677  0.19669790  0.69940761     0.17700
H364        H  0.14357982  0.09689515  0.88923844     0.17800
H365        H  0.05348253  0.14420763  0.79713071     0.17700
C366        C  0.14240568  0.35978022  0.27924941     0.31600
C367        C  0.10889103  0.39350294  0.21961023     0.31600
C368        C  0.15448019  0.36842513  0.22302550    -0.04600
C369        C  0.11340328  0.34716352  0.26482075    -0.05400
C370        C  0.13494074  0.38816796  0.30682491    -0.05200
C371        C  0.13729640  0.38600316  0.19219096    -0.04600
C372        C  0.09615027  0.36451124  0.23367719    -0.05400
C373        C  0.11747539  0.40545198  0.27596486    -0.05200
C374        C  0.15128950  0.39118589  0.14306922    -0.30600
N375        N  0.17645734  0.37694511  0.14322397     0.15900
C376        C  0.17840788  0.36290412  0.19210858    -0.30600
H377        H  0.19594128  0.34953840  0.20421875     0.17800
C378        C  0.07141734  0.34977844  0.22360461    -0.29600
N379        N  0.07309618  0.32394861  0.24844093     0.14600
C380        C  0.09875114  0.32231097  0.27398879    -0.29600
C381        C  0.11203113  0.42939204  0.30689273    -0.29900
N382        N  0.12599726  0.42736035  0.35584822     0.15100
H383        H  0.09877319  0.44699637  0.29473028     0.17700
C384        C  0.14012453  0.40212364  0.35601625    -0.29900
H385        H  0.15322250  0.39448589  0.38939036     0.17700
H386        H  0.10620885  0.30435660  0.29752996     0.17700
H387        H  0.14371745  0.40434512  0.10973376     0.17800
H388        H  0.05358123  0.35722815  0.19970126     0.17700
C389        C  0.05847892  0.44424840  0.12934277     0.44100
N390        N  0.03296324  0.45160396  0.05892076     0.03000
C391        C  0.03171815  0.07018319  0.89722886    -0.04900
H392        H  0.01929099  0.08793280  0.11196737     0.08500
C393        C  0.43051710  0.03218774  0.10151926    -0.05300
Co394      Co  0.05109429  0.00298086  0.99890380     0.74200
N395        N  0.02844118  0.05244157  0.05917946    -0.24400
Co396      Co  0.49745676  0.05217339  0.99966784     0.74100
C397        C  0.44112434  0.05697803  0.12970011     0.44200
N398        N  0.45062425  0.46762697  0.05863831     0.02600
N399        N  0.46664208  0.04965911  0.05929566     0.02700
N400        N  0.06635219  0.03713799  0.89807625    -0.45300
H401        H  0.08753442  0.48180613  0.10999140     0.08400
N402        N  0.04899259  0.03363876  0.05868762     0.03000
N403        N  0.46668173  0.04998502  0.93993669     0.02700
C404        C  0.44155598  0.05751044  0.86905240     0.44300
N405        N  0.47116308  0.44880790  0.05896169    -0.23900
C406        C  0.06851906  0.46899498  0.89615364    -0.04800
N407        N  0.03651541  0.43402276  0.10047161    -0.45000
N408        N  0.46325479  0.06774873  0.89863950    -0.45200
C409        C  0.05797875  0.44393519  0.86875142     0.44100
N410        N  0.04868073  0.03379833  0.93947194     0.03000
N411        N  0.47119116  0.44868232  0.93976583    -0.23900
N412        N  0.05173885  0.47214523  0.05840374    -0.24400
N413        N  0.45081266  0.46766782  0.93943834     0.02600
H414        H  0.48034280  0.41283274  0.88790795     0.08500
H415        H  0.41267164  0.01964269  0.88702376     0.08500
N416        N  0.02831371  0.05279757  0.93997086    -0.24500
N417        N  0.44786749  0.02911774  0.05872004    -0.24100
N418        N  0.03281643  0.45145568  0.93956365     0.03000
C419        C  0.05703078  0.05863571  0.12944714     0.44400
C420        C  0.46767654  0.43164486  0.10201650    -0.05300
N421        N  0.44807447  0.02928944  0.93963049    -0.24100
H422        H  0.41206033  0.01943987  0.11020385     0.08500
N423        N  0.06691377  0.03684842  0.09975333    -0.45300
H424        H  0.48034187  0.41321575  0.11153007     0.08500
C425        C  0.44295373  0.44235328  0.86903111     0.44200
C426        C  0.06909389  0.46904686  0.10121808    -0.04800
Co427      Co  0.50209535  0.44918446  0.99936852     0.73800
N428        N  0.43274728  0.46436347  0.09972571    -0.45000
C429        C  0.05649035  0.05923840  0.86920441     0.44500
N430        N  0.03626935  0.43369397  0.89828299    -0.45000
Co431      Co  0.44845601  0.49838000  0.99904899     0.73900
C432        C  0.43098291  0.03246548  0.89643406    -0.05300
C433        C  0.03195365  0.06952336  0.10233451    -0.04900
N434        N  0.05141461  0.47215977  0.93930594    -0.24400
N435        N  0.46308831  0.06721482  0.10087136    -0.45200
H436        H  0.01913276  0.08875015  0.88833626     0.08500
C437        C  0.46776599  0.43138609  0.89691609    -0.05300
Cl438      Cl  0.49977600  0.00067990  0.99926175    -0.48300
C439        C  0.44264060  0.44251448  0.12925830     0.44200
H440        H  0.08684805  0.48180641  0.88684192     0.08400
N441        N  0.43310138  0.46439133  0.89806088    -0.45000
C442        C  0.19126793  0.19376515  0.36971327     0.44100
N443        N  0.21674252  0.20172245  0.43989364     0.03000
C444        C  0.21829068  0.31974030  0.60227230    -0.04900
H445        H  0.23078942  0.33810262  0.38811832     0.08500
C446        C  0.31923075  0.28283675  0.39767262    -0.05300
Co447      Co  0.19832717  0.25300285  0.49991007     0.74200
N448        N  0.22123243  0.30248120  0.44019934    -0.24400
Co449      Co  0.25211938  0.30200875  0.49969516     0.74100
C450        C  0.30836114  0.30776499  0.37003852     0.44200
N451        N  0.29909840  0.21760142  0.44015410     0.02600
N452        N  0.28290697  0.29974210  0.44016824     0.02700
N453        N  0.18322351  0.28722889  0.60126084    -0.45300
H454        H  0.16183228  0.23123546  0.38846946     0.08400
N455        N  0.20055912  0.28384246  0.44028491     0.03000
N456        N  0.28281124  0.29976732  0.55936154     0.02700
C457        C  0.30780683  0.30765040  0.63021288     0.44300
N458        N  0.27840768  0.19898196  0.43996894    -0.23900
C459        C  0.18088805  0.21854755  0.60254258    -0.04800
N460        N  0.21335042  0.18393139  0.39869285    -0.45000
N461        N  0.28596912  0.31754129  0.60064665    -0.45200
C462        C  0.19182036  0.19354650  0.62984830     0.44100
N463        N  0.20077813  0.28375974  0.55965896     0.03000
N464        N  0.27830820  0.19881081  0.55906529    -0.23900
N465        N  0.19778614  0.22213570  0.44017925    -0.24400
N466        N  0.29887614  0.21755301  0.55954521     0.02600
H467        H  0.26851376  0.16317705  0.61092510     0.08500
H468        H  0.33721983  0.27006285  0.61228448     0.08500
N469        N  0.22134237  0.30250717  0.55928845    -0.24500
N470        N  0.30185384  0.27931840  0.44037169    -0.24100
N471        N  0.21683507  0.20151923  0.55909629     0.03000
C472        C  0.19294482  0.30922161  0.36979541     0.44400
C473        C  0.28163597  0.18175316  0.39701519    -0.05300
N474        N  0.30167827  0.27927898  0.55958965    -0.24100
H475        H  0.33777680  0.27025277  0.38864109     0.08500
N476        N  0.18275110  0.28740110  0.39908354    -0.45300
H477        H  0.26883589  0.16340014  0.38780906     0.08500
C478        C  0.30607760  0.19221576  0.63028116     0.44200
C479        C  0.18039199  0.21865468  0.39745516    -0.04800
Co480      Co  0.24753061  0.19937589  0.49944322     0.73800
N481        N  0.31692006  0.21404314  0.39899902    -0.45000
C482        C  0.19347621  0.30911173  0.63032129     0.44500
N483        N  0.21364720  0.18367141  0.60026692    -0.45000
Co484      Co  0.30133326  0.24837599  0.49993832     0.73900
C485        C  0.31877324  0.28270750  0.60278005    -0.05300
C486        C  0.21799512  0.31974074  0.39727739    -0.04900
N487        N  0.19798825  0.22202570  0.55940995    -0.24400
N488        N  0.28629728  0.31758501  0.39904441    -0.45200
H489        H  0.23104988  0.33816604  0.61114497     0.08500
C490        C  0.28130310  0.18158365  0.60208236    -0.05300
Cl491      Cl  0.24982788  0.25069153  0.49970687    -0.48300
C492        C  0.30671129  0.19224894  0.36962988     0.44200
H493        H  0.16245699  0.23119928  0.61207938     0.08400
N494        N  0.31637587  0.21408975  0.60126740    -0.45000
C495        C  0.07549505  0.42683715  0.16260969    -0.11700
C496        C  0.09063528  0.41171741  0.18828857    -0.13200
C497        C  0.16048552  0.34137849  0.31060475    -0.11700
C498        C  0.17550563  0.32618593  0.33642390    -0.13200
C499        C  0.16080470  0.15981510  0.68846184    -0.11700
C500        C  0.17530724  0.17561759  0.66299497    -0.08400
C501        C  0.09025305  0.09006182  0.81024527    -0.11700
C502        C  0.07434598  0.07574088  0.83586766    -0.13200
C503        C  0.40892285  0.08954413  0.18843799    -0.11700
C504        C  0.42407588  0.07440210  0.16286052    -0.13200
C505        C  0.33908441  0.15998327  0.31049886    -0.11700
C506        C  0.32413155  0.17524793  0.33629355    -0.13200
C507        C  0.32431810  0.32559947  0.66331924    -0.11700
C508        C  0.33876208  0.34148603  0.68871721    -0.13200
C509        C  0.42502847  0.42578180  0.83599829    -0.11700
C510        C  0.40913101  0.41135020  0.81060470    -0.13200
C511        C  0.40919733  0.09000062  0.81042824    -0.11700
C512        C  0.42452572  0.07498990  0.83593516    -0.13200
C513        C  0.33861274  0.15977840  0.68859955    -0.11700
C514        C  0.32350639  0.17507989  0.66326336    -0.13200
C515        C  0.09037066  0.41141331  0.81026236    -0.11700
C516        C  0.07504494  0.42644520  0.83572044    -0.13200
C517        C  0.17600441  0.32623487  0.66323573    -0.11700
C518        C  0.16088452  0.34152195  0.68855887    -0.13200
C519        C  0.32487352  0.32562766  0.33672031    -0.11700
C520        C  0.33924704  0.34142424  0.31094437    -0.13200
C521        C  0.42478498  0.42603566  0.16263357    -0.11700
C522        C  0.40905065  0.41158975  0.18838721    -0.13200
C523        C  0.16043214  0.16005397  0.31056879    -0.11700
C524        C  0.17476378  0.17590579  0.33633450    -0.13200
C525        C  0.09063563  0.08966660  0.18836499    -0.11700
C526        C  0.07492167  0.07513862  0.16272273    -0.13200
C527        C  0.10903019  0.60775151  0.21965292     0.31600
C528        C  0.14253278  0.64147428  0.27924377     0.31600
C529        C  0.13743352  0.61521930  0.19221559    -0.04600
C530        C  0.09628504  0.63675397  0.23369897    -0.05400
C531        C  0.11764328  0.59580595  0.27601465    -0.05200
C532        C  0.15461603  0.63279984  0.22301923    -0.04600
C533        C  0.11351496  0.65408421  0.26480356    -0.05400
C534        C  0.13510862  0.61308424  0.30685737    -0.05200
C535        C  0.17853873  0.63827391  0.19207038    -0.30600
N536        N  0.17658590  0.62421064  0.14321410     0.15900
C537        C  0.15142492  0.61000000  0.14310768    -0.30600
H538        H  0.14385546  0.59683419  0.10980899     0.17800
C539        C  0.09883841  0.67894771  0.27397205    -0.29600
N540        N  0.07318511  0.67732896  0.24843435     0.14600
C541        C  0.07153686  0.65150222  0.22361470    -0.29600
C542        C  0.14033554  0.59910392  0.35602174    -0.29900
N543        N  0.12622986  0.57387573  0.35586337     0.15100
H544        H  0.15344376  0.60672041  0.38937459     0.17700
C545        C  0.11223661  0.57186763  0.30694170    -0.29900
H546        H  0.09898117  0.55428093  0.29480535     0.17700
H547        H  0.05370899  0.64406092  0.19971702     0.17700
H548        H  0.19606779  0.65162404  0.20413800     0.17800
H549        H  0.10628028  0.69689486  0.29750872     0.17700
N550        N  0.99980126  0.70706394  0.24472827    -0.35000
N551        N  0.45604092  0.75063788  0.24917393    -0.55600
N552        N  0.99975721  0.79421659  0.24486107    -0.35000
N553        N  0.04351825  0.75064451  0.24911304    -0.55600
C554        C  0.47665959  0.69171414  0.25880851     0.28600
C555        C  0.02297156  0.69171828  0.25884270     0.28600
C556        C  0.47660062  0.80954961  0.25904070     0.28600
C557        C  0.02290794  0.80956173  0.25892812     0.28600
C558        C  0.44017039  0.72764663  0.23663244     0.37200
C559        C  0.44014374  0.77365837  0.23676878     0.37200
C560        C  0.05940664  0.72763561  0.23662386     0.37200
C561        C  0.05937719  0.77364977  0.23661635     0.37200
C562        C  0.48524740  0.66649880  0.28266615    -0.20300
C563        C  0.01443134  0.66650175  0.28268923    -0.20300
C564        C  0.48515783  0.83475250  0.28291933    -0.20300
C565        C  0.01434127  0.83476151  0.28284203    -0.20300
C566        C  0.41428322  0.73612383  0.21556325    -0.21300
C567        C  0.41426418  0.76523315  0.21566079    -0.21300
C568        C  0.08526686  0.73608538  0.21550431    -0.21300
C569        C  0.08524683  0.76519497  0.21549447    -0.21300
C570        C  0.44810849  0.69922412  0.24757558    -0.16700
C571        C  0.05150685  0.69922084  0.24761780    -0.16700
C572        C  0.05144583  0.80206408  0.24762807    -0.16700
C573        C  0.44806060  0.80205976  0.24781229    -0.16700
H574        H  0.47191537  0.64979025  0.29852483     0.16200
H575        H  0.02779554  0.64979396  0.29856312     0.16200
H576        H  0.47180430  0.85144972  0.29883364     0.16200
H577        H  0.02768761  0.85146428  0.29869315     0.16200
H578        H  0.39717589  0.72279363  0.20139220     0.14500
H579        H  0.39714038  0.77859864  0.20158024     0.14500
H580        H  0.10237987  0.72273598  0.20135996     0.14500
H581        H  0.10234120  0.77854122  0.20134508     0.14500
H582        H  0.99978415  0.72550114  0.22130237     0.27800
H583        H  0.99975401  0.77579858  0.22139069     0.27800
C584        C  0.39064146  0.89357682  0.21978154     0.31600
C585        C  0.35715447  0.85993908  0.27953598     0.31600
C586        C  0.36218624  0.88614473  0.19243053    -0.04600
C587        C  0.40334619  0.86455754  0.23385163    -0.05400
C588        C  0.38213254  0.90555593  0.27616520    -0.05200
C589        C  0.34501477  0.86861058  0.22333058    -0.04600
C590        C  0.38612607  0.84726608  0.26503681    -0.05400
C591        C  0.36467481  0.88831486  0.30708080    -0.05200
C592        C  0.32107935  0.86308539  0.19240832    -0.30600
N593        N  0.32300364  0.87707347  0.14346060     0.15900
C594        C  0.34816840  0.89128504  0.14327744    -0.30600
H595        H  0.35573453  0.90438162  0.10987920     0.17800
C596        C  0.40077499  0.82238322  0.27421753    -0.29600
N597        N  0.42640158  0.82396300  0.24861985     0.14600
C598        C  0.42806018  0.84977537  0.22374350    -0.29600
C599        C  0.35956549  0.90228216  0.35628031    -0.29900
N600        N  0.37372791  0.92747492  0.35608368     0.15100
H601        H  0.34648865  0.89468530  0.38967673     0.17700
C602        C  0.38765060  0.92946905  0.30710175    -0.29900
H603        H  0.40092129  0.94703360  0.29492084     0.17700
H604        H  0.44587589  0.85718552  0.19980377     0.17700
H605        H  0.30357111  0.84972907  0.20454030     0.17800
H606        H  0.39333762  0.80445366  0.29780809     0.17700
N607        N  0.12458886  0.50062210  0.41490203    -0.35000
N608        N  0.12702668  0.54466604  0.49950384    -0.55600
N609        N  0.12453489  0.50062032  0.58406466    -0.35000
N610        N  0.12684310  0.95656688  0.49946576    -0.55600
C611        C  0.13155685  0.52379598  0.38471040     0.28600
C612        C  0.13144525  0.97741687  0.38468256     0.28600
C613        C  0.13145284  0.52378325  0.61431585     0.28600
C614        C  0.13139192  0.97741600  0.61429396     0.28600
C615        C  0.12136705  0.56081246  0.45465359     0.37200
C616        C  0.12132516  0.56080193  0.54432848     0.37200
C617        C  0.12111226  0.94045272  0.45462719     0.37200
C618        C  0.12110383  0.94046013  0.54430811     0.37200
C619        C  0.14317037  0.51515530  0.33515398    -0.20300
C620        C  0.14309814  0.98600419  0.33513447    -0.20300
C621        C  0.14302626  0.51514001  0.66393131    -0.20300
C622        C  0.14299060  0.98599162  0.66391608    -0.20300
C623        C  0.11180124  0.58718984  0.47113744    -0.21300
C624        C  0.11177982  0.58718428  0.52781155    -0.21300
C625        C  0.11145761  0.91412511  0.47113479    -0.21300
C626        C  0.11145712  0.91412885  0.52781669    -0.21300
C627        C  0.12628210  0.55251808  0.39922418    -0.16700
C628        C  0.12606230  0.94872165  0.39919184    -0.16700
C629        C  0.12604755  0.94872852  0.59974434    -0.16700
C630        C  0.12619474  0.55249869  0.59977721    -0.16700
H631        H  0.15101748  0.52845197  0.30231675     0.16200
H632        H  0.15088240  0.97267293  0.30228279     0.16200
H633        H  0.15082800  0.52843335  0.69682056     0.16200
H634        H  0.15075883  0.97265378  0.69679583     0.16200
H635        H  0.10536864  0.60463750  0.44518206     0.14500
H636        H  0.10533669  0.60462604  0.55375073     0.14500
H637        H  0.10497109  0.89670992  0.44518482     0.14500
H638        H  0.10497781  0.89671741  0.55378476     0.14500
H639        H  0.11302252  0.50065312  0.45131424     0.27800
H640        H  0.11300360  0.50065203  0.54757721     0.27800
N641        N  0.37526317  0.50073966  0.41506709    -0.35000
N642        N  0.37289501  0.95668580  0.49968414    -0.55600
N643        N  0.37525828  0.50071830  0.58426762    -0.35000
N644        N  0.37288761  0.54477534  0.49962062    -0.55600
C645        C  0.36836371  0.97754903  0.38487192     0.28600
C646        C  0.36831897  0.52392554  0.38484296     0.28600
C647        C  0.36833096  0.97754442  0.61448282     0.28600
C648        C  0.36837219  0.52391624  0.61445900     0.28600
C649        C  0.37862817  0.94055853  0.45486474     0.37200
C650        C  0.37855270  0.94054396  0.54454382     0.37200
C651        C  0.37854021  0.56091884  0.45478362     0.37200
C652        C  0.37858158  0.56089758  0.54446235     0.37200
C653        C  0.35670778  0.98615750  0.33530409    -0.20300
C654        C  0.35668128  0.51530654  0.33528429    -0.20300
C655        C  0.35672969  0.98617894  0.66405561    -0.20300
C656        C  0.35676020  0.51532693  0.66404458    -0.20300
C657        C  0.38821255  0.91419093  0.47140509    -0.21300
C658        C  0.38815461  0.91417880  0.52808502    -0.21300
C659        C  0.38810328  0.58727955  0.47129170    -0.21300
C660        C  0.38812784  0.58726607  0.52797099    -0.21300
C661        C  0.37370767  0.94884183  0.39941262    -0.16700
C662        C  0.37360521  0.55263778  0.39934774    -0.16700
C663        C  0.37365995  0.55261633  0.59989440    -0.16700
C664        C  0.37358693  0.94882490  0.59995874    -0.16700
H665        H  0.34888466  0.97284200  0.30246862     0.16200
H666        H  0.34883514  0.52861530  0.30242991     0.16200
H667        H  0.34890227  0.97288157  0.69690866     0.16200
H668        H  0.34896091  0.52865546  0.69688657     0.16200
H669        H  0.39468249  0.89675483  0.44547799     0.14500
H670        H  0.39457042  0.89673560  0.55407157     0.14500
H671        H  0.39451523  0.60472392  0.44534691     0.14500
H672        H  0.39455026  0.60470002  0.55393570     0.14500
H673        H  0.38683604  0.50073909  0.45150578     0.27800
H674        H  0.38680241  0.50070246  0.54779609     0.27800
C675        C  0.14264953  0.85983742  0.71967933     0.31600
C676        C  0.10885502  0.89334111  0.77911480     0.31600
C677        C  0.13514173  0.88822661  0.69214322    -0.04600
C678        C  0.11365243  0.84708980  0.73366608    -0.05400
C679        C  0.15455935  0.86846197  0.77605815    -0.05200
C680        C  0.11752746  0.90539905  0.72289234    -0.04600
C681        C  0.09627675  0.86432711  0.76471989    -0.05400
C682        C  0.13723926  0.88592142  0.80681754    -0.05200
C683        C  0.11197995  0.92930792  0.69191966    -0.30600
N684        N  0.12602792  0.92736196  0.64306906     0.15900
C685        C  0.14030680  0.90221506  0.64298835    -0.30600
H686        H  0.15347207  0.89465359  0.60967854     0.17800
C687        C  0.07141586  0.84967121  0.77378073    -0.29600
N688        N  0.07306143  0.82403556  0.74820118     0.14600
C689        C  0.09891361  0.82237878  0.72346535    -0.29600
C690        C  0.15117950  0.89115179  0.85602417    -0.29900
N691        N  0.17644216  0.87706284  0.85596240     0.15100
H692        H  0.14351531  0.90425958  0.88933202     0.17700
C693        C  0.17850450  0.86307402  0.80705824    -0.29900
H694        H  0.19613529  0.84984089  0.79497371     0.17700
H695        H  0.10637688  0.80457444  0.69952702     0.17700
H696        H  0.09858579  0.94682426  0.70396176     0.17800
H697        H  0.05344837  0.85712102  0.79726453     0.17700
N698        N  0.04333885  0.75067462  0.74421505    -0.35000
N699        N  0.49974318  0.79444464  0.74913790    -0.55600
N700        N  0.45614792  0.75072686  0.74463579    -0.35000
N701        N  0.49974443  0.70695783  0.74882747    -0.55600
C702        C  0.05872235  0.77381093  0.75828602     0.28600
C703        C  0.05872292  0.72750272  0.75823453     0.28600
C704        C  0.44079016  0.77387521  0.75884922     0.28600
C705        C  0.44078020  0.72756908  0.75861341     0.28600
C706        C  0.02272780  0.81033223  0.73660998     0.37200
C707        C  0.47670812  0.81036522  0.73689642     0.37200
C708        C  0.02274793  0.69104572  0.73637102     0.37200
C709        C  0.47672367  0.69107962  0.73646387     0.37200
C710        C  0.08397784  0.76521461  0.78196750    -0.20300
C711        C  0.08397754  0.73604127  0.78193896    -0.20300
C712        C  0.41556733  0.76530139  0.78259106    -0.20300
C713        C  0.41555964  0.73612691  0.78243680    -0.20300
C714        C  0.01422853  0.83624900  0.71574473    -0.21300
C715        C  0.48512092  0.83627181  0.71593487    -0.21300
C716        C  0.01427607  0.66515335  0.71543266    -0.21300
C717        C  0.48516686  0.66517657  0.71548333    -0.21300
C718        C  0.05117599  0.80237504  0.74730795    -0.16700
C719        C  0.05118674  0.69895907  0.74717277    -0.16700
C720        C  0.44830120  0.69902595  0.74741369    -0.16700
C721        C  0.44829846  0.80243042  0.74784460    -0.16700
H722        H  0.10069935  0.77853213  0.79783890     0.16200
H723        H  0.10070067  0.72268568  0.79778075     0.16200
H724        H  0.39886313  0.77863611  0.79853546     0.16200
H725        H  0.39885121  0.72278276  0.79825349     0.16200
H726        H  0.02754329  0.85336680  0.70159200     0.14500
H727        H  0.47174897  0.85340863  0.70194719     0.14500
H728        H  0.02761054  0.64802080  0.70132783     0.14500
H729        H  0.47181288  0.64806431  0.70143080     0.14500
H730        H  0.02487582  0.75070031  0.72097576     0.27800
H731        H  0.47456716  0.75074231  0.72130217     0.27800
C732        C  0.39069555  0.60803587  0.77924632     0.31600
C733        C  0.35686219  0.64148458  0.71974155     0.31600
C734        C  0.36228964  0.61538332  0.80686550    -0.04600
C735        C  0.40322956  0.63707030  0.76490156    -0.05400
C736        C  0.38206650  0.59597261  0.72300798    -0.05200
C737        C  0.34494620  0.63281977  0.77607254    -0.04600
C738        C  0.38583216  0.65428722  0.73381631    -0.05400
C739        C  0.36442740  0.61311428  0.69221000    -0.05200
C740        C  0.32096681  0.63812260  0.80698194    -0.30600
N741        N  0.32303599  0.62410032  0.85586324     0.15900
C742        C  0.34833201  0.61007232  0.85599197    -0.30600
H743        H  0.35601013  0.59695461  0.88929678     0.17800
C744        C  0.40055123  0.67901153  0.72360763    -0.29600
N745        N  0.42641645  0.67736786  0.74834866     0.14600
C746        C  0.42808831  0.65173674  0.77395051    -0.29600
C747        C  0.35929284  0.59910943  0.64305738    -0.29900
N748        N  0.37362093  0.57398805  0.64319521     0.15100
H749        H  0.34611402  0.60664205  0.60971278     0.17700
C750        C  0.38766521  0.57207306  0.69207852    -0.29900
H751        H  0.40108967  0.55458297  0.70417486     0.17700
H752        H  0.44608027  0.64429078  0.79740779     0.17700
H753        H  0.30331260  0.65132475  0.79485583     0.17800
H754        H  0.39307407  0.69680801  0.69963679     0.17700
N755        N  0.24973312  0.87548631  0.08427675    -0.35000
N756        N  0.20564281  0.87794125  0.99964234    -0.55600
N757        N  0.24970656  0.87567705  0.91515172    -0.35000
N758        N  0.29379508  0.87806740  0.99978664    -0.55600
C759        C  0.22652563  0.88231316  0.11452892     0.28600
C760        C  0.27290552  0.88233995  0.11462630     0.28600
C761        C  0.22649915  0.88255994  0.88489392     0.28600
C762        C  0.27288695  0.88262612  0.88495866     0.28600
C763        C  0.18954107  0.87216068  0.04445989     0.37200
C764        C  0.18952077  0.87223712  0.95478331     0.37200
C765        C  0.30992390  0.87229062  0.04462600     0.37200
C766        C  0.30991635  0.87238177  0.95493036     0.37200
C767        C  0.23510916  0.89382690  0.16420546    -0.20300
C768        C  0.26426002  0.89384153  0.16426930    -0.20300
C769        C  0.23509198  0.89422047  0.83535953    -0.20300
C770        C  0.26424813  0.89426341  0.83540083    -0.20300
C771        C  0.16320190  0.86253440  0.02792729    -0.21300
C772        C  0.16319052  0.86257689  0.97125105    -0.21300
C773        C  0.33628045  0.86268835  0.02810538    -0.21300
C774        C  0.33627437  0.86274061  0.97142604    -0.21300
C775        C  0.19782829  0.87700800  0.09992167    -0.16700
C776        C  0.30162796  0.87709548  0.10009862    -0.16700
C777        C  0.30160906  0.87729756  0.89947846    -0.16700
C778        C  0.19779770  0.87717373  0.89935699    -0.16700
H779        H  0.22177587  0.90156208  0.19709560     0.16200
H780        H  0.27754968  0.90159623  0.19721374     0.16200
H781        H  0.22175934  0.90201992  0.80249393     0.16200
H782        H  0.27755026  0.90210072  0.80256862     0.16200
H783        H  0.14579721  0.85601500  0.05386357     0.14500
H784        H  0.14577591  0.85609171  0.94528022     0.14500
H785        H  0.35370391  0.85616306  0.05404919     0.14500
H786        H  0.35369404  0.85626017  0.94547058     0.14500
H787        H  0.24975714  0.86404183  0.04779246     0.27800
H788        H  0.24973380  0.86410607  0.95152496     0.27800
N789        N  0.24981731  0.62562192  0.08409667    -0.35000
N790        N  0.29387918  0.62314264  0.99952166    -0.55600
N791        N  0.24978216  0.62542319  0.91497232    -0.35000
N792        N  0.20572105  0.62306532  0.99956603    -0.55600
C793        C  0.27302248  0.61880367  0.11438746     0.28600
C794        C  0.22664987  0.61880751  0.11442630     0.28600
C795        C  0.27297989  0.61856458  0.88472499     0.28600
C796        C  0.22658785  0.61851564  0.88474983     0.28600
C797        C  0.30998933  0.62893892  0.04435145     0.37200
C798        C  0.30998138  0.62886379  0.95467053     0.37200
C799        C  0.18962525  0.62889132  0.04438833     0.37200
C800        C  0.18959261  0.62878158  0.95470138     0.37200
C801        C  0.26444328  0.60731833  0.16408848    -0.20300
C802        C  0.23529229  0.60732462  0.16411650    -0.20300
C803        C  0.26436699  0.60695185  0.83514662    -0.20300
C804        C  0.23520787  0.60691852  0.83516409    -0.20300
C805        C  0.33631670  0.63858245  0.02783534    -0.21300
C806        C  0.33631002  0.63854298  0.97116020    -0.21300
C807        C  0.16328094  0.63854416  0.02785167    -0.21300
C808        C  0.16326150  0.63848111  0.97117533    -0.21300
C809        C  0.30171195  0.62411757  0.09981878    -0.16700
C810        C  0.19793808  0.62410136  0.09987026    -0.16700
C811        C  0.19787332  0.62386862  0.89925663    -0.16700
C812        C  0.30168722  0.62394648  0.89922800    -0.16700
H813        H  0.27777918  0.59960419  0.19702440     0.16200
H814        H  0.22199956  0.59961285  0.19707465     0.16200
H815        H  0.27768746  0.59918606  0.80226295     0.16200
H816        H  0.22189192  0.59912499  0.80229258     0.16200
H817        H  0.35372123  0.64512276  0.05378141     0.14500
H818        H  0.35370959  0.64505543  0.94520646     0.14500
H819        H  0.14588539  0.64511503  0.05378545     0.14500
H820        H  0.14584673  0.64500254  0.94520808     0.14500
H821        H  0.24979193  0.63706600  0.04756256     0.27800
H822        H  0.24977205  0.63697107  0.95138798     0.27800
C823        C  0.35680812  0.85995228  0.71989301     0.31600
C824        C  0.39054231  0.89342797  0.77944303     0.31600
C825        C  0.34484487  0.86860897  0.77621546    -0.04600
C826        C  0.38579599  0.84718773  0.73405309    -0.05400
C827        C  0.36432414  0.88833420  0.69234023    -0.05200
C828        C  0.36214190  0.88606181  0.80703643    -0.04600
C829        C  0.40313284  0.86440216  0.76514862    -0.05400
C830        C  0.38191270  0.90548827  0.72317686    -0.05200
C831        C  0.34819579  0.89128659  0.85621688    -0.30600
N832        N  0.32295363  0.87720351  0.85609856     0.15900
C833        C  0.32091064  0.86322040  0.80717730    -0.30600
H834        H  0.30330773  0.84997742  0.79506837     0.17800
C835        C  0.42800441  0.84972950  0.77432592    -0.29600
N836        N  0.42638768  0.82409325  0.74876253     0.14600
C837        C  0.40055181  0.82245769  0.72393454    -0.29600
C838        C  0.38751767  0.92937121  0.69221879    -0.29900
N839        N  0.37352301  0.92745286  0.64328644     0.15100
H840        H  0.40092171  0.94685068  0.70432495     0.17700
C841        C  0.35923106  0.90233017  0.64313274    -0.29900
H842        H  0.34610927  0.89478739  0.60973662     0.17700
H843        H  0.39311790  0.80466130  0.69995822     0.17700
H844        H  0.35584980  0.90437318  0.88956025     0.17800
H845        H  0.44596477  0.85717581  0.79783713     0.17700
C846        C  0.35714078  0.64153462  0.27919503     0.31600
C847        C  0.39066129  0.60778129  0.21967801     0.31600
C848        C  0.34505821  0.63284465  0.22297261    -0.04600
C849        C  0.38614059  0.65414350  0.26475443    -0.05400
C850        C  0.36462338  0.61315973  0.30685655    -0.05200
C851        C  0.36224818  0.61525119  0.19221554    -0.04600
C852        C  0.40338946  0.63678454  0.23366987    -0.05400
C853        C  0.38209377  0.59587016  0.27605567    -0.05200
C854        C  0.34825612  0.61001592  0.14309741    -0.30600
N855        N  0.32308020  0.62423711  0.14316171     0.15900
C856        C  0.32112145  0.63831742  0.19199454    -0.30600
H857        H  0.30357641  0.65167572  0.20402819     0.17800
C858        C  0.42812036  0.65151031  0.22359887    -0.29600
N859        N  0.42645221  0.67734511  0.24839464     0.14600
C860        C  0.40080192  0.67899245  0.27391021    -0.29600
C861        C  0.38757523  0.57195600  0.30704300    -0.29900
N862        N  0.37362058  0.57399252  0.35597735     0.15100
H863        H  0.40085305  0.55436384  0.29493329     0.17700
C864        C  0.35946497  0.59921593  0.35607616    -0.29900
H865        H  0.34636728  0.60685353  0.38942038     0.17700
H866        H  0.39335485  0.69694880  0.29743202     0.17700
H867        H  0.35583408  0.59683361  0.10982476     0.17800
H868        H  0.44595084  0.64404885  0.19973358     0.17700
C869        C  0.14269880  0.64139807  0.71962232     0.31600
C870        C  0.10889312  0.60793961  0.77906297     0.31600
C871        C  0.15460211  0.63275973  0.77602272    -0.04600
C872        C  0.11368899  0.65416759  0.73356756    -0.05400
C873        C  0.13522172  0.61300325  0.69212254    -0.05200
C874        C  0.13727405  0.61531844  0.80678832    -0.04600
C875        C  0.09632354  0.63696197  0.76460751    -0.05400
C876        C  0.11759606  0.59585057  0.72287296    -0.05200
C877        C  0.15123449  0.61001715  0.85595378    -0.30600
N878        N  0.17651078  0.62404166  0.85587343     0.15900
C879        C  0.17856305  0.63806430  0.80699519    -0.30600
H880        H  0.19620275  0.65125546  0.79490017     0.17800
C881        C  0.07144846  0.65163992  0.77364875    -0.29600
N882        N  0.07308062  0.67727175  0.74806047     0.14600
C883        C  0.09893625  0.67889817  0.72334125    -0.29600
C884        C  0.11209443  0.57193495  0.69193381    -0.29900
N885        N  0.12617719  0.57385313  0.64311520     0.15100
H886        H  0.09870041  0.55443756  0.70396814     0.17700
C887        C  0.14043731  0.59898827  0.64302292    -0.29900
H888        H  0.15361938  0.60652822  0.60973384     0.17700
H889        H  0.10639678  0.69669786  0.69940753     0.17700
H890        H  0.14357987  0.59689515  0.88923843     0.17800
H891        H  0.05348254  0.64420763  0.79713079     0.17700
C892        C  0.14240569  0.85978021  0.27924942     0.31600
C893        C  0.10889105  0.89350294  0.21961021     0.31600
C894        C  0.15448022  0.86842515  0.22302554    -0.04600
C895        C  0.11340332  0.84716350  0.26482068    -0.05400
C896        C  0.13494071  0.88816792  0.30682496    -0.05200
C897        C  0.13729644  0.88600320  0.19219098    -0.04600
C898        C  0.09615032  0.86451122  0.23367713    -0.05400
C899        C  0.11747538  0.90545197  0.27596488    -0.05200
C900        C  0.15128952  0.89118590  0.14306921    -0.30600
N901        N  0.17645732  0.87694507  0.14322393     0.15900
C902        C  0.17840788  0.86290409  0.19210856    -0.30600
H903        H  0.19594127  0.84953835  0.20421875     0.17800
C904        C  0.07141739  0.84977845  0.22360459    -0.29600
N905        N  0.07309619  0.82394863  0.24844097     0.14600
C906        C  0.09875117  0.82231097  0.27398877    -0.29600
C907        C  0.11203115  0.92939204  0.30689269    -0.29900
N908        N  0.12599726  0.92736033  0.35584821     0.15100
H909        H  0.09877324  0.94699638  0.29473016     0.17700
C910        C  0.14012450  0.90212361  0.35601628    -0.29900
H911        H  0.15322248  0.89448583  0.38939038     0.17700
H912        H  0.10620889  0.80435660  0.29752994     0.17700
H913        H  0.14371745  0.90434515  0.10973376     0.17800
H914        H  0.05358131  0.85722820  0.19970122     0.17700
C915        C  0.05847891  0.94424851  0.12934283     0.44100
N916        N  0.03296323  0.95160402  0.05892079     0.03000
C917        C  0.03171820  0.57018320  0.89722891    -0.04900
H918        H  0.01929097  0.58793280  0.11196732     0.08500
C919        C  0.43051708  0.53218777  0.10151930    -0.05300
Co920      Co  0.05109433  0.50298086  0.99890382     0.74200
N921        N  0.02844122  0.55244157  0.05917946    -0.24400
Co922      Co  0.49745674  0.55217340  0.99966783     0.74100
C923        C  0.44112437  0.55697804  0.12970015     0.44200
N924        N  0.45062426  0.96762692  0.05863833     0.02600
N925        N  0.46664206  0.54965913  0.05929564     0.02700
N926        N  0.06635220  0.53713797  0.89807620    -0.45300
H927        H  0.08753437  0.98180621  0.10999127     0.08400
N928        N  0.04899264  0.53363876  0.05868761     0.03000
N929        N  0.46668174  0.54998506  0.93993669     0.02700
C930        C  0.44155602  0.55751048  0.86905237     0.44300
N931        N  0.47116308  0.94880785  0.05896173    -0.23900
C932        C  0.06851910  0.96899494  0.89615371    -0.04800
N933        N  0.03651538  0.93402288  0.10047175    -0.45000
N934        N  0.46325483  0.56774878  0.89863949    -0.45200
C935        C  0.05797881  0.94393515  0.86875146     0.44100
N936        N  0.04868077  0.53379835  0.93947197     0.03000
N937        N  0.47119116  0.94868232  0.93976577    -0.23900
N938        N  0.05173881  0.97214526  0.05840368    -0.24400
N939        N  0.45081259  0.96766778  0.93943841     0.02600
H940        H  0.48034283  0.91283280  0.88790777     0.08500
H941        H  0.41267162  0.51964276  0.88702375     0.08500
N942        N  0.02831376  0.55279758  0.93997091    -0.24500
N943        N  0.44786743  0.52911778  0.05872002    -0.24100
N944        N  0.03281643  0.95145564  0.93956362     0.03000
C945        C  0.05703077  0.55863567  0.12944719     0.44400
C946        C  0.46767653  0.93164478  0.10201650    -0.05300
N947        N  0.44807446  0.52928950  0.93963046    -0.24100
H948        H  0.41206029  0.51943993  0.11020401     0.08500
N949        N  0.06691379  0.53684839  0.09975337    -0.45300
H950        H  0.48034187  0.91321568  0.11153009     0.08500
C951        C  0.44295369  0.94235330  0.86903107     0.44200
C952        C  0.06909386  0.96904694  0.10121804    -0.04800
Co953      Co  0.50209536  0.94918444  0.99936853     0.73800
N954        N  0.43274726  0.96436340  0.09972569    -0.45000
C955        C  0.05649035  0.55923837  0.86920437     0.44500
N956        N  0.03626938  0.93369393  0.89828296    -0.45000
Co957      Co  0.44845601  0.99837995  0.99904903     0.73900
C958        C  0.43098291  0.53246554  0.89643404    -0.05300
C959        C  0.03195365  0.56952335  0.10233452    -0.04900
N960        N  0.05141462  0.97215973  0.93930595    -0.24400
N961        N  0.46308835  0.56721481  0.10087140    -0.45200
H962        H  0.01913277  0.58875012  0.88833629     0.08500
C963        C  0.46776601  0.93138615  0.89691593    -0.05300
Cl964      Cl  0.49977598  0.50067995  0.99926176    -0.48300
C965        C  0.44264059  0.94251441  0.12925829     0.44200
H966        H  0.08684810  0.98180637  0.88684201     0.08400
N967        N  0.43310130  0.96439129  0.89806098    -0.45000
C968        C  0.19126789  0.69376510  0.36971332     0.44100
N969        N  0.21674250  0.70172246  0.43989363     0.03000
C970        C  0.21829056  0.81974036  0.60227225    -0.04900
H971        H  0.23078949  0.83810265  0.38811825     0.08500
C972        C  0.31923080  0.78283685  0.39767274    -0.05300
Co973      Co  0.19832713  0.75300286  0.49991007     0.74200
N974        N  0.22123241  0.80248128  0.44019939    -0.24400
Co975      Co  0.25211935  0.80200879  0.49969519     0.74100
C976        C  0.30836114  0.80776503  0.37003857     0.44200
N977        N  0.29909842  0.71760141  0.44015411     0.02600
N978        N  0.28290695  0.79974213  0.44016826     0.02700
N979        N  0.18322347  0.78722888  0.60126082    -0.45300
H980        H  0.16183218  0.73123536  0.38846950     0.08400
N981        N  0.20055910  0.78384251  0.44028492     0.03000
N982        N  0.28281123  0.79976730  0.55936158     0.02700
C983        C  0.30780684  0.80765037  0.63021287     0.44300
N984        N  0.27840767  0.69898195  0.43996896    -0.23900
C985        C  0.18088809  0.71854758  0.60254259    -0.04800
N986        N  0.21335042  0.68393140  0.39869284    -0.45000
N987        N  0.28596914  0.81754128  0.60064665    -0.45200
C988        C  0.19182034  0.69354649  0.62984823     0.44100
N989        N  0.20077811  0.78375974  0.55965895     0.03000
N990        N  0.27830820  0.69881090  0.55906533    -0.23900
N991        N  0.19778606  0.72213567  0.44017928    -0.24400
N992        N  0.29887617  0.71755307  0.55954528     0.02600
H993        H  0.26851377  0.66317711  0.61092490     0.08500
H994        H  0.33721984  0.77006282  0.61228440     0.08500
N995        N  0.22134231  0.80250722  0.55928843    -0.24500
N996        N  0.30185387  0.77931847  0.44037181    -0.24100
N997        N  0.21683509  0.70151924  0.55909632     0.03000
C998        C  0.19294486  0.80922166  0.36979540     0.44400
C999        C  0.28163596  0.68175312  0.39701524    -0.05300
N1000       N  0.30167824  0.77927896  0.55958970    -0.24100
H1001       H  0.33777680  0.77025286  0.38864098     0.08500
N1002       N  0.18275111  0.78740115  0.39908350    -0.45300
H1003       H  0.26883587  0.66340009  0.38780918     0.08500
C1004       C  0.30607764  0.69221574  0.63028110     0.44200
C1005       C  0.18039189  0.71865459  0.39745524    -0.04800
Co1006     Co  0.24753061  0.69937593  0.49944324     0.73800
N1007       N  0.31692005  0.71404310  0.39899902    -0.45000
C1008       C  0.19347614  0.80911173  0.63032126     0.44500
N1009       N  0.21364719  0.68367140  0.60026690    -0.45000
Co1010     Co  0.30133326  0.74837601  0.49993838     0.73900
C1011       C  0.31877324  0.78270747  0.60278006    -0.05300
C1012       C  0.21799515  0.81974081  0.39727741    -0.04900
N1013       N  0.19798828  0.72202571  0.55940995    -0.24400
N1014       N  0.28629723  0.81758501  0.39904436    -0.45200
H1015       H  0.23104972  0.83816611  0.61114501     0.08500
C1016       C  0.28130310  0.68158372  0.60208232    -0.05300
Cl1017     Cl  0.24982784  0.75069156  0.49970688    -0.48300
C1018       C  0.30671127  0.69224889  0.36962989     0.44200
H1019       H  0.16245704  0.73119931  0.61207933     0.08400
N1020       N  0.31637594  0.71408974  0.60126742    -0.45000
C1021       C  0.07549507  0.92683725  0.16260972    -0.11700
C1022       C  0.09063524  0.91171741  0.18828857    -0.13200
C1023       C  0.16048549  0.84137846  0.31060476    -0.11700
C1024       C  0.17550566  0.82618596  0.33642387    -0.13200
C1025       C  0.16080468  0.65981514  0.68846189    -0.11700
C1026       C  0.17530718  0.67561762  0.66299491    -0.08400
C1027       C  0.09025303  0.59006180  0.81024525    -0.11700
C1028       C  0.07434597  0.57574085  0.83586762    -0.13200
C1029       C  0.40892283  0.58954410  0.18843797    -0.11700
C1030       C  0.42407591  0.57440211  0.16286053    -0.13200
C1031       C  0.33908441  0.65998323  0.31049889    -0.11700
C1032       C  0.32413152  0.67524789  0.33629353    -0.13200
C1033       C  0.32431808  0.82559943  0.66331928    -0.11700
C1034       C  0.33876208  0.84148599  0.68871720    -0.13200
C1035       C  0.42502844  0.92578178  0.83599828    -0.11700
C1036       C  0.40913095  0.91135018  0.81060476    -0.13200
C1037       C  0.40919736  0.59000064  0.81042822    -0.11700
C1038       C  0.42452577  0.57498992  0.83593509    -0.13200
C1039       C  0.33861267  0.65977835  0.68859958    -0.11700
C1040       C  0.32350636  0.67507984  0.66326333    -0.13200
C1041       C  0.09037069  0.91141328  0.81026238    -0.11700
C1042       C  0.07504499  0.92644517  0.83572047    -0.13200
C1043       C  0.17600437  0.82623483  0.66323580    -0.11700
C1044       C  0.16088452  0.84152193  0.68855891    -0.13200
C1045       C  0.32487350  0.82562769  0.33672031    -0.11700
C1046       C  0.33924703  0.84142424  0.31094435    -0.13200
C1047       C  0.42478496  0.92603562  0.16263358    -0.11700
C1048       C  0.40905059  0.91158972  0.18838716    -0.13200
C1049       C  0.16043216  0.66005395  0.31056874    -0.11700
C1050       C  0.17476381  0.67590574  0.33633449    -0.13200
C1051       C  0.09063561  0.58966658  0.18836503    -0.11700
C1052       C  0.07492166  0.57513859  0.16272278    -0.13200
C1053       C  0.60903018  0.10775152  0.21965293     0.31600
C1054       C  0.64253276  0.14147426  0.27924383     0.31600
C1055       C  0.63743352  0.11521933  0.19221559    -0.04600
C1056       C  0.59628502  0.13675397  0.23369902    -0.05400
C1057       C  0.61764327  0.09580592  0.27601463    -0.05200
C1058       C  0.65461602  0.13279987  0.22301925    -0.04600
C1059       C  0.61351493  0.15408418  0.26480362    -0.05400
C1060       C  0.63510861  0.11308418  0.30685739    -0.05200
C1061       C  0.67853873  0.13827395  0.19207040    -0.30600
N1062       N  0.67658590  0.12421069  0.14321410     0.15900
C1063       C  0.65142492  0.11000005  0.14310768    -0.30600
H1064       H  0.64385548  0.09683423  0.10980898     0.17800
C1065       C  0.59883839  0.17894769  0.27397204    -0.29600
N1066       N  0.57318510  0.17732896  0.24843431     0.14600
C1067       C  0.57153685  0.15150223  0.22361468    -0.29600
C1068       C  0.64033552  0.09910383  0.35602175    -0.29900
N1069       N  0.62622981  0.07387566  0.35586335     0.15100
H1070       H  0.65344376  0.10672025  0.38937461     0.17700
C1071       C  0.61223658  0.07186758  0.30694164    -0.29900
H1072       H  0.59898117  0.05428089  0.29480517     0.17700
H1073       H  0.55370899  0.14406094  0.19971695     0.17700
H1074       H  0.69606779  0.15162408  0.20413803     0.17800
H1075       H  0.60628026  0.19689484  0.29750868     0.17700
N1076       N  0.49980128  0.20706396  0.24472829    -0.35000
N1077       N  0.95604093  0.25063790  0.24917394    -0.55600
N1078       N  0.49975723  0.29421661  0.24486106    -0.35000
N1079       N  0.54351825  0.25064450  0.24911304    -0.55600
C1080       C  0.97665960  0.19171418  0.25880850     0.28600
C1081       C  0.52297158  0.19171830  0.25884273     0.28600
C1082       C  0.97660063  0.30954965  0.25904069     0.28600
C1083       C  0.52290797  0.30956173  0.25892811     0.28600
C1084       C  0.94017038  0.22764666  0.23663242     0.37200
C1085       C  0.94014375  0.27365839  0.23676879     0.37200
C1086       C  0.55940663  0.22763560  0.23662388     0.37200
C1087       C  0.55937721  0.27364975  0.23661634     0.37200
C1088       C  0.98524740  0.16649884  0.28266616    -0.20300
C1089       C  0.51443139  0.16650177  0.28268922    -0.20300
C1090       C  0.98515783  0.33475253  0.28291931    -0.20300
C1091       C  0.51434130  0.33476151  0.28284202    -0.20300
C1092       C  0.91428322  0.23612386  0.21556324    -0.21300
C1093       C  0.91426419  0.26523318  0.21566079    -0.21300
C1094       C  0.58526684  0.23608533  0.21550431    -0.21300
C1095       C  0.58524684  0.26519492  0.21549447    -0.21300
C1096       C  0.94810849  0.19922414  0.24757555    -0.16700
C1097       C  0.55150686  0.19922085  0.24761782    -0.16700
C1098       C  0.55144586  0.30206406  0.24762806    -0.16700
C1099       C  0.94806061  0.30205978  0.24781230    -0.16700
H1100       H  0.97191533  0.14979031  0.29852481     0.16200
H1101       H  0.52779559  0.14979398  0.29856315     0.16200
H1102       H  0.97180435  0.35144976  0.29883366     0.16200
H1103       H  0.52768765  0.35146426  0.29869317     0.16200
H1104       H  0.89717587  0.22279368  0.20139219     0.14500
H1105       H  0.89714041  0.27859869  0.20158025     0.14500
H1106       H  0.60237981  0.22273589  0.20135998     0.14500
H1107       H  0.60234124  0.27854114  0.20134510     0.14500
H1108       H  0.49978416  0.22550116  0.22130243     0.27800
H1109       H  0.49975402  0.27579859  0.22139071     0.27800
C1110       C  0.89064145  0.39357684  0.21978153     0.31600
C1111       C  0.85715447  0.35993907  0.27953595     0.31600
C1112       C  0.86218623  0.38614476  0.19243054    -0.04600
C1113       C  0.90334619  0.36455756  0.23385161    -0.05400
C1114       C  0.88213253  0.40555593  0.27616519    -0.05200
C1115       C  0.84501479  0.36861059  0.22333056    -0.04600
C1116       C  0.88612606  0.34726608  0.26503678    -0.05400
C1117       C  0.86467482  0.38831483  0.30708077    -0.05200
C1118       C  0.82107940  0.36308536  0.19240826    -0.30600
N1119       N  0.82300365  0.37707347  0.14346057     0.15900
C1120       C  0.84816838  0.39128507  0.14327745    -0.30600
H1121       H  0.85573451  0.40438167  0.10987923     0.17800
C1122       C  0.90077500  0.32238323  0.27421752    -0.29600
N1123       N  0.92640159  0.32396303  0.24861986     0.14600
C1124       C  0.92806018  0.34977540  0.22374352    -0.29600
C1125       C  0.85956552  0.40228209  0.35628032    -0.29900
N1126       N  0.87372792  0.42747487  0.35608373     0.15100
H1127       H  0.84648871  0.39468518  0.38967673     0.17700
C1128       C  0.88765058  0.42946903  0.30710179    -0.29900
H1129       H  0.90092124  0.44703361  0.29492092     0.17700
H1130       H  0.94587589  0.35718556  0.19980380     0.17700
H1131       H  0.80357120  0.34972900  0.20454018     0.17800
H1132       H  0.89333766  0.30445366  0.29780811     0.17700
N1133       N  0.62458885  0.00062206  0.41490205    -0.35000
N1134       N  0.62702669  0.04466600  0.49950384    -0.55600
N1135       N  0.62453492  0.00062027  0.58406466    -0.35000
N1136       N  0.62684313  0.45656688  0.49946576    -0.55600
C1137       C  0.63155684  0.02379594  0.38471043     0.28600
C1138       C  0.63144524  0.47741690  0.38468255     0.28600
C1139       C  0.63145284  0.02378321  0.61431585     0.28600
C1140       C  0.63139196  0.47741601  0.61429395     0.28600
C1141       C  0.62136706  0.06081243  0.45465360     0.37200
C1142       C  0.62132514  0.06080189  0.54432848     0.37200
C1143       C  0.62111226  0.44045274  0.45462720     0.37200
C1144       C  0.62110384  0.44046013  0.54430811     0.37200
C1145       C  0.64317035  0.01515527  0.33515403    -0.20300
C1146       C  0.64309817  0.48600423  0.33513451    -0.20300
C1147       C  0.64302624  0.01513998  0.66393132    -0.20300
C1148       C  0.64299059  0.48599164  0.66391608    -0.20300
C1149       C  0.61180126  0.08718981  0.47113749    -0.21300
C1150       C  0.61177980  0.08718424  0.52781159    -0.21300
C1151       C  0.61145760  0.41412512  0.47113479    -0.21300
C1152       C  0.61145711  0.41412886  0.52781669    -0.21300
C1153       C  0.62628205  0.05251802  0.39922417    -0.16700
C1154       C  0.62606231  0.44872167  0.39919185    -0.16700
C1155       C  0.62604755  0.44872854  0.59974434    -0.16700
C1156       C  0.62619474  0.05249866  0.59977720    -0.16700
H1157       H  0.65101747  0.02845196  0.30231685     0.16200
H1158       H  0.65088242  0.47267295  0.30228284     0.16200
H1159       H  0.65082798  0.02843332  0.69682056     0.16200
H1160       H  0.65075880  0.47265375  0.69679580     0.16200
H1161       H  0.60536867  0.10463749  0.44518211     0.14500
H1162       H  0.60533666  0.10462599  0.55375084     0.14500
H1163       H  0.60497107  0.39670993  0.44518481     0.14500
H1164       H  0.60497779  0.39671743  0.55378477     0.14500
H1165       H  0.61302253  0.00065310  0.45131429     0.27800
H1166       H  0.61300362  0.00065195  0.54757723     0.27800
N1167       N  0.87526315  0.00073969  0.41506710    -0.35000
N1168       N  0.87289501  0.45668582  0.49968412    -0.55600
N1169       N  0.87525830  0.00071827  0.58426764    -0.35000
N1170       N  0.87288751  0.04477531  0.49962059    -0.55600
C1171       C  0.86836368  0.47754901  0.38487189     0.28600
C1172       C  0.86831896  0.02392554  0.38484291     0.28600
C1173       C  0.86833094  0.47754446  0.61448283     0.28600
C1174       C  0.86837219  0.02391620  0.61445903     0.28600
C1175       C  0.87862816  0.44055853  0.45486474     0.37200
C1176       C  0.87855271  0.44054400  0.54454382     0.37200
C1177       C  0.87854015  0.06091881  0.45478361     0.37200
C1178       C  0.87858156  0.06089752  0.54446235     0.37200
C1179       C  0.85670780  0.48615752  0.33530402    -0.20300
C1180       C  0.85668126  0.01530654  0.33528425    -0.20300
C1181       C  0.85672968  0.48617899  0.66405563    -0.20300
C1182       C  0.85676019  0.01532688  0.66404461    -0.20300
C1183       C  0.88821256  0.41419094  0.47140512    -0.21300
C1184       C  0.88815462  0.41417884  0.52808505    -0.21300
C1185       C  0.88810327  0.08727950  0.47129176    -0.21300
C1186       C  0.88812786  0.08726599  0.52797104    -0.21300
C1187       C  0.87370763  0.44884180  0.39941262    -0.16700
C1188       C  0.87360520  0.05263778  0.39934769    -0.16700
C1189       C  0.87365992  0.05261629  0.59989442    -0.16700
C1190       C  0.87358693  0.44882495  0.59995875    -0.16700
H1191       H  0.84888466  0.47284204  0.30246853     0.16200
H1192       H  0.84883517  0.02861528  0.30242980     0.16200
H1193       H  0.84890230  0.47288166  0.69690878     0.16200
H1194       H  0.84896089  0.02865540  0.69688661     0.16200
H1195       H  0.89468251  0.39675484  0.44547805     0.14500
H1196       H  0.89457043  0.39673564  0.55407161     0.14500
H1197       H  0.89451522  0.10472388  0.44534700     0.14500
H1198       H  0.89455031  0.10469992  0.55393581     0.14500
H1199       H  0.88683605  0.00073914  0.45150576     0.27800
H1200       H  0.88680241  0.00070244  0.54779610     0.27800
C1201       C  0.64264953  0.35983744  0.71967933     0.31600
C1202       C  0.60885501  0.39334113  0.77911479     0.31600
C1203       C  0.63514173  0.38822662  0.69214320    -0.04600
C1204       C  0.61365243  0.34708983  0.73366609    -0.05400
C1205       C  0.65455936  0.36846200  0.77605813    -0.05200
C1206       C  0.61752742  0.40539905  0.72289230    -0.04600
C1207       C  0.59627674  0.36432714  0.76471991    -0.05400
C1208       C  0.63723927  0.38592145  0.80681753    -0.05200
C1209       C  0.61197991  0.42930791  0.69191965    -0.30600
N1210       N  0.62602791  0.42736198  0.64306908     0.15900
C1211       C  0.64030683  0.40221508  0.64298836    -0.30600
H1212       H  0.65347211  0.39465363  0.60967855     0.17800
C1213       C  0.57141585  0.34967124  0.77378073    -0.29600
N1214       N  0.57306143  0.32403560  0.74820117     0.14600
C1215       C  0.59891361  0.32237881  0.72346535    -0.29600
C1216       C  0.65117950  0.39115179  0.85602417    -0.29900
N1217       N  0.67644216  0.37706282  0.85596240     0.15100
H1218       H  0.64351535  0.40425960  0.88933201     0.17700
C1219       C  0.67850450  0.36307402  0.80705822    -0.29900
H1220       H  0.69613530  0.34984092  0.79497362     0.17700
H1221       H  0.60637688  0.30457448  0.69952701     0.17700
H1222       H  0.59858573  0.44682425  0.70396178     0.17800
H1223       H  0.55344836  0.35712106  0.79726452     0.17700
N1224       N  0.54333885  0.25067465  0.74421504    -0.35000
N1225       N  0.99974318  0.29444463  0.74913785    -0.55600
N1226       N  0.95614793  0.25072683  0.74463578    -0.35000
N1227       N  0.99974444  0.20695778  0.74882736    -0.55600
C1228       C  0.55872235  0.27381097  0.75828601     0.28600
C1229       C  0.55872292  0.22750274  0.75823453     0.28600
C1230       C  0.94079018  0.27387519  0.75884919     0.28600
C1231       C  0.94078020  0.22756904  0.75861343     0.28600
C1232       C  0.52272780  0.31033225  0.73660997     0.37200
C1233       C  0.97670813  0.31036522  0.73689641     0.37200
C1234       C  0.52274793  0.19104571  0.73637087     0.37200
C1235       C  0.97672368  0.19107954  0.73646390     0.37200
C1236       C  0.58397784  0.26521465  0.78196750    -0.20300
C1237       C  0.58397753  0.23604130  0.78193896    -0.20300
C1238       C  0.91556736  0.26530138  0.78259104    -0.20300
C1239       C  0.91555964  0.23612690  0.78243680    -0.20300
C1240       C  0.51422851  0.33624901  0.71574477    -0.21300
C1241       C  0.98512093  0.33627181  0.71593491    -0.21300
C1242       C  0.51427610  0.16515332  0.71543257    -0.21300
C1243       C  0.98516690  0.16517648  0.71548338    -0.21300
C1244       C  0.55117599  0.30237507  0.74730794    -0.16700
C1245       C  0.55118673  0.19895908  0.74717273    -0.16700
C1246       C  0.94830121  0.19902590  0.74741371    -0.16700
C1247       C  0.94829847  0.30243041  0.74784459    -0.16700
H1248       H  0.60069935  0.27853217  0.79783890     0.16200
H1249       H  0.60070067  0.22268571  0.79778075     0.16200
H1250       H  0.89886317  0.27863610  0.79853546     0.16200
H1251       H  0.89885118  0.22278280  0.79825352     0.16200
H1252       H  0.52754323  0.35336684  0.70159204     0.14500
H1253       H  0.97174900  0.35340865  0.70194723     0.14500
H1254       H  0.52761061  0.14802078  0.70132775     0.14500
H1255       H  0.97181295  0.14806419  0.70143093     0.14500
H1256       H  0.52487583  0.25070033  0.72097575     0.27800
H1257       H  0.97456713  0.25074226  0.72130213     0.27800
C1258       C  0.89069554  0.10803584  0.77924631     0.31600
C1259       C  0.85686220  0.14148458  0.71974154     0.31600
C1260       C  0.86228962  0.11538328  0.80686548    -0.04600
C1261       C  0.90322956  0.13707027  0.76490153    -0.05400
C1262       C  0.88206649  0.09597257  0.72300797    -0.05200
C1263       C  0.84494620  0.13281976  0.77607253    -0.04600
C1264       C  0.88583216  0.15428721  0.73381631    -0.05400
C1265       C  0.86442741  0.11311426  0.69220999    -0.05200
C1266       C  0.82096684  0.13812264  0.80698195    -0.30600
N1267       N  0.82303600  0.12410036  0.85586325     0.15900
C1268       C  0.84833200  0.11007233  0.85599198    -0.30600
H1269       H  0.85601013  0.09695464  0.88929683     0.17800
C1270       C  0.90055122  0.17901152  0.72360767    -0.29600
N1271       N  0.92641645  0.17736783  0.74834869     0.14600
C1272       C  0.92808830  0.15173671  0.77395052    -0.29600
C1273       C  0.85929286  0.09910941  0.64305737    -0.29900
N1274       N  0.87362093  0.07398801  0.64319520     0.15100
H1275       H  0.84611406  0.10664203  0.60971274     0.17700
C1276       C  0.88766521  0.07207302  0.69207850    -0.29900
H1277       H  0.90108969  0.05458291  0.70417475     0.17700
H1278       H  0.94608025  0.14429075  0.79740783     0.17700
H1279       H  0.80331265  0.15132481  0.79485583     0.17800
H1280       H  0.89307407  0.19680802  0.69963685     0.17700
N1281       N  0.74973312  0.37548632  0.08427670    -0.35000
N1282       N  0.70564284  0.37794113  0.99964235    -0.55600
N1283       N  0.74970656  0.37567711  0.91515172    -0.35000
N1284       N  0.79379509  0.37806740  0.99978665    -0.55600
C1285       C  0.72652564  0.38231320  0.11452891     0.28600
C1286       C  0.77290553  0.38233995  0.11462634     0.28600
C1287       C  0.72649915  0.38255998  0.88489393     0.28600
C1288       C  0.77288695  0.38262617  0.88495866     0.28600
C1289       C  0.68954109  0.37216060  0.04445991     0.37200
C1290       C  0.68952077  0.37223710  0.95478332     0.37200
C1291       C  0.80992390  0.37229059  0.04462601     0.37200
C1292       C  0.80991636  0.37238181  0.95493037     0.37200
C1293       C  0.73510917  0.39382692  0.16420546    -0.20300
C1294       C  0.76426003  0.39384149  0.16426936    -0.20300
C1295       C  0.73509198  0.39422051  0.83535953    -0.20300
C1296       C  0.76424812  0.39426344  0.83540083    -0.20300
C1297       C  0.66320189  0.36253440  0.02792730    -0.21300
C1298       C  0.66319050  0.36257694  0.97125105    -0.21300
C1299       C  0.83628046  0.36268835  0.02810538    -0.21300
C1300       C  0.83627438  0.36274066  0.97142603    -0.21300
C1301       C  0.69782830  0.37700800  0.09992167    -0.16700
C1302       C  0.80162796  0.37709547  0.10009862    -0.16700
C1303       C  0.80160907  0.37729761  0.89947847    -0.16700
C1304       C  0.69779770  0.37717374  0.89935700    -0.16700
H1305       H  0.72177588  0.40156212  0.19709557     0.16200
H1306       H  0.77754971  0.40159613  0.19721385     0.16200
H1307       H  0.72175934  0.40201994  0.80249390     0.16200
H1308       H  0.77755025  0.40210071  0.80256859     0.16200
H1309       H  0.64579716  0.35601507  0.05386355     0.14500
H1310       H  0.64577588  0.35609181  0.94528021     0.14500
H1311       H  0.85370394  0.35616310  0.05404918     0.14500
H1312       H  0.85369406  0.35626025  0.94547056     0.14500
H1313       H  0.74975715  0.36404185  0.04779258     0.27800
H1314       H  0.74973381  0.36410611  0.95152493     0.27800
N1315       N  0.74981732  0.12562184  0.08409658    -0.35000
N1316       N  0.79387920  0.12314257  0.99952165    -0.55600
N1317       N  0.74978216  0.12542322  0.91497231    -0.35000
N1318       N  0.70572106  0.12306537  0.99956604    -0.55600
C1319       C  0.77302249  0.11880358  0.11438745     0.28600
C1320       C  0.72664987  0.11880750  0.11442633     0.28600
C1321       C  0.77297989  0.11856463  0.88472498     0.28600
C1322       C  0.72658786  0.11851565  0.88474983     0.28600
C1323       C  0.80998934  0.12893886  0.04435145     0.37200
C1324       C  0.80998138  0.12886379  0.95467054     0.37200
C1325       C  0.68962526  0.12889136  0.04438833     0.37200
C1326       C  0.68959262  0.12878160  0.95470138     0.37200
C1327       C  0.76444327  0.10731832  0.16408851    -0.20300
C1328       C  0.73529228  0.10732464  0.16411654    -0.20300
C1329       C  0.76436700  0.10695190  0.83514661    -0.20300
C1330       C  0.73520788  0.10691856  0.83516408    -0.20300
C1331       C  0.83631671  0.13858239  0.02783537    -0.21300
C1332       C  0.83631002  0.13854297  0.97116023    -0.21300
C1333       C  0.66328095  0.13854419  0.02785165    -0.21300
C1334       C  0.66326152  0.13848114  0.97117531    -0.21300
C1335       C  0.80171195  0.12411751  0.09981877    -0.16700
C1336       C  0.69793809  0.12410140  0.09987027    -0.16700
C1337       C  0.69787332  0.12386860  0.89925665    -0.16700
C1338       C  0.80168722  0.12394653  0.89922799    -0.16700
H1339       H  0.77777917  0.09960421  0.19702448     0.16200
H1340       H  0.72199954  0.09961290  0.19707470     0.16200
H1341       H  0.77768747  0.09918611  0.80226295     0.16200
H1342       H  0.72189193  0.09912502  0.80229257     0.16200
H1343       H  0.85372127  0.14512266  0.05378143     0.14500
H1344       H  0.85370957  0.14505545  0.94520650     0.14500
H1345       H  0.64588538  0.14511502  0.05378541     0.14500
H1346       H  0.64584672  0.14500254  0.94520807     0.14500
H1347       H  0.74979195  0.13706586  0.04756260     0.27800
H1348       H  0.74977205  0.13697109  0.95138797     0.27800
C1349       C  0.85680813  0.35995231  0.71989301     0.31600
C1350       C  0.89054231  0.39342800  0.77944301     0.31600
C1351       C  0.84484488  0.36860901  0.77621546    -0.04600
C1352       C  0.88579599  0.34718776  0.73405311    -0.05400
C1353       C  0.86432415  0.38833423  0.69234022    -0.05200
C1354       C  0.86214191  0.38606185  0.80703642    -0.04600
C1355       C  0.90313284  0.36440218  0.76514858    -0.05400
C1356       C  0.88191270  0.40548831  0.72317686    -0.05200
C1357       C  0.84819580  0.39128664  0.85621688    -0.30600
N1358       N  0.82295363  0.37720356  0.85609856     0.15900
C1359       C  0.82091065  0.36322044  0.80717730    -0.30600
H1360       H  0.80330773  0.34997746  0.79506837     0.17800
C1361       C  0.92800442  0.34972952  0.77432588    -0.29600
N1362       N  0.92638770  0.32409325  0.74876257     0.14600
C1363       C  0.90055181  0.32245769  0.72393465    -0.29600
C1364       C  0.88751767  0.42937125  0.69221880    -0.29900
N1365       N  0.87352302  0.42745290  0.64328645     0.15100
H1366       H  0.90092172  0.44685073  0.70432495     0.17700
C1367       C  0.85923107  0.40233021  0.64313274    -0.29900
H1368       H  0.84610928  0.39478743  0.60973662     0.17700
H1369       H  0.89311785  0.30466129  0.69995847     0.17700
H1370       H  0.85584981  0.40437323  0.88956024     0.17800
H1371       H  0.94596478  0.35717584  0.79783708     0.17700
C1372       C  0.85714077  0.14153464  0.27919503     0.31600
C1373       C  0.89066129  0.10778132  0.21967803     0.31600
C1374       C  0.84505820  0.13284467  0.22297258    -0.04600
C1375       C  0.88614059  0.15414351  0.26475446    -0.05400
C1376       C  0.86462334  0.11315974  0.30685655    -0.05200
C1377       C  0.86224820  0.11525122  0.19221552    -0.04600
C1378       C  0.90338947  0.13678455  0.23366992    -0.05400
C1379       C  0.88209373  0.09587017  0.27605566    -0.05200
C1380       C  0.84825615  0.11001592  0.14309740    -0.30600
N1381       N  0.82308019  0.12423704  0.14316174     0.15900
C1382       C  0.82112141  0.13831736  0.19199455    -0.30600
H1383       H  0.80357634  0.15167564  0.20402821     0.17800
C1384       C  0.92812037  0.15151032  0.22359889    -0.29600
N1385       N  0.92645222  0.17734512  0.24839461     0.14600
C1386       C  0.90080192  0.17899246  0.27391019    -0.29600
C1387       C  0.88757522  0.07195602  0.30704299    -0.29900
N1388       N  0.87362057  0.07399252  0.35597733     0.15100
H1389       H  0.90085307  0.05436387  0.29493331     0.17700
C1390       C  0.85946495  0.09921593  0.35607616    -0.29900
H1391       H  0.84636731  0.10685351  0.38942048     0.17700
H1392       H  0.89335485  0.19694882  0.29743197     0.17700
H1393       H  0.85583416  0.09683362  0.10982474     0.17800
H1394       H  0.94595085  0.14404885  0.19973357     0.17700
C1395       C  0.64269882  0.14139806  0.71962232     0.31600
C1396       C  0.60889313  0.10793961  0.77906296     0.31600
C1397       C  0.65460212  0.13275973  0.77602273    -0.04600
C1398       C  0.61368900  0.15416760  0.73356757    -0.05400
C1399       C  0.63522173  0.11300324  0.69212254    -0.05200
C1400       C  0.63727407  0.11531842  0.80678833    -0.04600
C1401       C  0.59632356  0.13696198  0.76460750    -0.05400
C1402       C  0.61759607  0.09585057  0.72287295    -0.05200
C1403       C  0.65123450  0.11001713  0.85595379    -0.30600
N1404       N  0.67651078  0.12404166  0.85587346     0.15900
C1405       C  0.67856304  0.13806432  0.80699523    -0.30600
H1406       H  0.69620274  0.15125549  0.79490022     0.17800
C1407       C  0.57144847  0.15163992  0.77364870    -0.29600
N1408       N  0.57308062  0.17727177  0.74806046     0.14600
C1409       C  0.59893626  0.17889818  0.72334128    -0.29600
C1410       C  0.61209442  0.07193496  0.69193378    -0.29900
N1411       N  0.62617719  0.07385311  0.64311518     0.15100
H1412       H  0.59870039  0.05443757  0.70396811     0.17700
C1413       C  0.64043731  0.09898827  0.64302291    -0.29900
H1414       H  0.65361937  0.10652821  0.60973382     0.17700
H1415       H  0.60639676  0.19669789  0.69940758     0.17700
H1416       H  0.64357988  0.09689513  0.88923845     0.17800
H1417       H  0.55348254  0.14420762  0.79713066     0.17700
C1418       C  0.64240569  0.35978022  0.27924943     0.31600
C1419       C  0.60889106  0.39350294  0.21961022     0.31600
C1420       C  0.65448022  0.36842515  0.22302553    -0.04600
C1421       C  0.61340332  0.34716351  0.26482072    -0.05400
C1422       C  0.63494071  0.38816794  0.30682495    -0.05200
C1423       C  0.63729643  0.38600318  0.19219098    -0.04600
C1424       C  0.59615032  0.36451123  0.23367717    -0.05400
C1425       C  0.61747540  0.40545199  0.27596486    -0.05200
C1426       C  0.65128952  0.39118590  0.14306922    -0.30600
N1427       N  0.67645734  0.37694510  0.14322395     0.15900
C1428       C  0.67840790  0.36290412  0.19210858    -0.30600
H1429       H  0.69594130  0.34953841  0.20421876     0.17800
C1430       C  0.57141739  0.34977843  0.22360460    -0.29600
N1431       N  0.57309622  0.32394861  0.24844094     0.14600
C1432       C  0.59875119  0.32231097  0.27398877    -0.29600
C1433       C  0.61203118  0.42939207  0.30689269    -0.29900
N1434       N  0.62599727  0.42736035  0.35584821     0.15100
H1435       H  0.59877327  0.44699642  0.29473021     0.17700
C1436       C  0.64012448  0.40212360  0.35601631    -0.29900
H1437       H  0.65322240  0.39448581  0.38939045     0.17700
H1438       H  0.60620891  0.30435660  0.29752996     0.17700
H1439       H  0.64371744  0.40434514  0.10973380     0.17800
H1440       H  0.55358129  0.35722815  0.19970126     0.17700
C1441       C  0.55847889  0.44424840  0.12934277     0.44100
N1442       N  0.53296322  0.45160396  0.05892076     0.03000
C1443       C  0.53171817  0.07018319  0.89722887    -0.04900
H1444       H  0.51929096  0.08793277  0.11196737     0.08500
C1445       C  0.93051709  0.03218772  0.10151928    -0.05300
Co1446     Co  0.55109433  0.00298086  0.99890380     0.74200
N1447       N  0.52844123  0.05244158  0.05917943    -0.24400
Co1448     Co  0.99745673  0.05217338  0.99966784     0.74100
C1449       C  0.94112434  0.05697801  0.12970016     0.44200
N1450       N  0.95062426  0.46762698  0.05863833     0.02600
N1451       N  0.96664206  0.04965912  0.05929567     0.02700
N1452       N  0.56635222  0.03713799  0.89807621    -0.45300
H1453       H  0.58753435  0.48180617  0.10999145     0.08400
N1454       N  0.54899264  0.03363877  0.05868761     0.03000
N1455       N  0.96668175  0.04998501  0.93993667     0.02700
C1456       C  0.94155600  0.05751045  0.86905239     0.44300
N1457       N  0.97116308  0.44880790  0.05896173    -0.23900
C1458       C  0.56851910  0.46899497  0.89615372    -0.04800
N1459       N  0.53651538  0.43402276  0.10047161    -0.45000
N1460       N  0.96325482  0.06774871  0.89863947    -0.45200
C1461       C  0.55797880  0.44393519  0.86875146     0.44100
N1462       N  0.54868078  0.03379834  0.93947195     0.03000
N1463       N  0.97119115  0.44868234  0.93976581    -0.23900
N1464       N  0.55173880  0.47214523  0.05840375    -0.24400
N1465       N  0.95081260  0.46766782  0.93943836     0.02600
H1466       H  0.98034281  0.41283279  0.88790790     0.08500
H1467       H  0.91267161  0.01964276  0.88702387     0.08500
N1468       N  0.52831376  0.05279758  0.93997088    -0.24500
N1469       N  0.94786747  0.02911774  0.05872005    -0.24100
N1470       N  0.53281643  0.45145569  0.93956363     0.03000
C1471       C  0.55703078  0.05863570  0.12944717     0.44400
C1472       C  0.96767653  0.43164483  0.10201649    -0.05300
N1473       N  0.94807448  0.02928943  0.93963049    -0.24100
H1474       H  0.91206029  0.01943987  0.11020387     0.08500
N1475       N  0.56691380  0.03684841  0.09975336    -0.45300
H1476       H  0.98034187  0.41321573  0.11153008     0.08500
C1477       C  0.94295368  0.44235327  0.86903114     0.44200
C1478       C  0.56909383  0.46904689  0.10121813    -0.04800
Co1479     Co  0.00209535  0.44918446  0.99936853     0.73800
N1480       N  0.93274726  0.46436345  0.09972569    -0.45000
C1481       C  0.55649035  0.05923839  0.86920437     0.44500
N1482       N  0.53626938  0.43369398  0.89828297    -0.45000
Co1483     Co  0.94845601  0.49838000  0.99904901     0.73900
C1484       C  0.93098290  0.03246551  0.89643410    -0.05300
C1485       C  0.53195367  0.06952336  0.10233449    -0.04900
N1486       N  0.55141463  0.47215977  0.93930596    -0.24400
N1487       N  0.96308832  0.06721480  0.10087141    -0.45200
H1488       H  0.51913273  0.08875013  0.88833626     0.08500
C1489       C  0.96776597  0.43138613  0.89691605    -0.05300
Cl1490     Cl  0.99977599  0.00067990  0.99926176    -0.48300
C1491       C  0.94264059  0.44251446  0.12925829     0.44200
H1492       H  0.58684814  0.48180636  0.88684207     0.08400
N1493       N  0.93310131  0.46439129  0.89806095    -0.45000
C1494       C  0.69126789  0.19376514  0.36971330     0.44100
N1495       N  0.71674250  0.20172248  0.43989363     0.03000
C1496       C  0.71829062  0.31974031  0.60227229    -0.04900
H1497       H  0.73078946  0.33810260  0.38811832     0.08500
C1498       C  0.81923075  0.28283678  0.39767267    -0.05300
Co1499     Co  0.69832713  0.25300285  0.49991008     0.74200
N1500       N  0.72123241  0.30248121  0.44019939    -0.24400
Co1501     Co  0.75211936  0.30200874  0.49969521     0.74100
C1502       C  0.80836115  0.30776502  0.37003861     0.44200
N1503       N  0.79909840  0.21760143  0.44015406     0.02600
N1504       N  0.78290697  0.29974210  0.44016830     0.02700
N1505       N  0.68322343  0.28722890  0.60126080    -0.45300
H1506       H  0.66183218  0.23123541  0.38846952     0.08400
N1507       N  0.70055910  0.28384247  0.44028491     0.03000
N1508       N  0.78281123  0.29976730  0.55936156     0.02700
C1509       C  0.80780685  0.30765041  0.63021285     0.44300
N1510       N  0.77840767  0.19898196  0.43996893    -0.23900
C1511       C  0.68088806  0.21854756  0.60254256    -0.04800
N1512       N  0.71335042  0.18393143  0.39869282    -0.45000
N1513       N  0.78596914  0.31754130  0.60064662    -0.45200
C1514       C  0.69182034  0.19354650  0.62984825     0.44100
N1515       N  0.70077809  0.28375972  0.55965897     0.03000
N1516       N  0.77830823  0.19881082  0.55906527    -0.23900
N1517       N  0.69778607  0.22213569  0.44017929    -0.24400
N1518       N  0.79887618  0.21755301  0.55954518     0.02600
H1519       H  0.76851378  0.16317710  0.61092510     0.08500
H1520       H  0.83721985  0.27006287  0.61228439     0.08500
N1521       N  0.72134233  0.30250715  0.55928848    -0.24500
N1522       N  0.80185385  0.27931840  0.44037176    -0.24100
N1523       N  0.71683509  0.20151924  0.55909634     0.03000
C1524       C  0.69294486  0.30922160  0.36979535     0.44400
C1525       C  0.78163596  0.18175314  0.39701521    -0.05300
N1526       N  0.80167826  0.27927897  0.55958966    -0.24100
H1527       H  0.83777677  0.27025280  0.38864101     0.08500
N1528       N  0.68275112  0.28740109  0.39908345    -0.45300
H1529       H  0.76883588  0.16340011  0.38780915     0.08500
C1530       C  0.80607763  0.19221577  0.63028114     0.44200
C1531       C  0.68039190  0.21865464  0.39745523    -0.04800
Co1532     Co  0.74753062  0.19937590  0.49944322     0.73800
N1533       N  0.81692004  0.21404314  0.39899899    -0.45000
C1534       C  0.69347615  0.30911174  0.63032124     0.44500
N1535       N  0.71364721  0.18367141  0.60026694    -0.45000
Co1536     Co  0.80133326  0.24837599  0.49993832     0.73900
C1537       C  0.81877326  0.28270750  0.60278003    -0.05300
C1538       C  0.71799514  0.31974074  0.39727741    -0.04900
N1539       N  0.69798827  0.22202571  0.55940996    -0.24400
N1540       N  0.78629729  0.31758501  0.39904452    -0.45200
H1541       H  0.73104979  0.33816607  0.61114495     0.08500
C1542       C  0.78130311  0.18158370  0.60208238    -0.05300
Cl1543     Cl  0.74982785  0.25069152  0.49970687    -0.48300
C1544       C  0.80671127  0.19224893  0.36962986     0.44200
H1545       H  0.66245700  0.23119931  0.61207932     0.08400
N1546       N  0.81637592  0.21408975  0.60126738    -0.45000
C1547       C  0.57549505  0.42683715  0.16260967    -0.11700
C1548       C  0.59063526  0.41171740  0.18828858    -0.13200
C1549       C  0.66048551  0.34137848  0.31060480    -0.11700
C1550       C  0.67550565  0.32618594  0.33642390    -0.13200
C1551       C  0.66080470  0.15981510  0.68846186    -0.11700
C1552       C  0.67530719  0.17561760  0.66299491    -0.08400
C1553       C  0.59025302  0.09006183  0.81024526    -0.11700
C1554       C  0.57434596  0.07574089  0.83586764    -0.13200
C1555       C  0.90892280  0.08954411  0.18843795    -0.11700
C1556       C  0.92407583  0.07440210  0.16286045    -0.13200
C1557       C  0.83908441  0.15998328  0.31049886    -0.11700
C1558       C  0.82413153  0.17524793  0.33629352    -0.13200
C1559       C  0.82431808  0.32559947  0.66331927    -0.11700
C1560       C  0.83876208  0.34148603  0.68871720    -0.13200
C1561       C  0.92502844  0.42578179  0.83599827    -0.11700
C1562       C  0.90913095  0.41135021  0.81060472    -0.13200
C1563       C  0.90919737  0.09000062  0.81042822    -0.11700
C1564       C  0.92452577  0.07498992  0.83593513    -0.13200
C1565       C  0.83861269  0.15977838  0.68859960    -0.11700
C1566       C  0.82350638  0.17507989  0.66326336    -0.13200
C1567       C  0.59037068  0.41141331  0.81026236    -0.11700
C1568       C  0.57504499  0.42644522  0.83572047    -0.13200
C1569       C  0.67600439  0.32623487  0.66323577    -0.11700
C1570       C  0.66088453  0.34152197  0.68855890    -0.13200
C1571       C  0.82487351  0.32562768  0.33672035    -0.11700
C1572       C  0.83924701  0.34142424  0.31094438    -0.13200
C1573       C  0.92478496  0.42603566  0.16263358    -0.11700
C1574       C  0.90905059  0.41158976  0.18838717    -0.13200
C1575       C  0.66043215  0.16005396  0.31056876    -0.11700
C1576       C  0.67476380  0.17590578  0.33633447    -0.13200
C1577       C  0.59063561  0.08966660  0.18836501    -0.11700
C1578       C  0.57492166  0.07513863  0.16272276    -0.13200
C1579       C  0.60903018  0.60775150  0.21965290     0.31600
C1580       C  0.64253274  0.64147428  0.27924377     0.31600
C1581       C  0.63743352  0.61521929  0.19221557    -0.04600
C1582       C  0.59628502  0.63675397  0.23369896    -0.05400
C1583       C  0.61764326  0.59580593  0.27601463    -0.05200
C1584       C  0.65461601  0.63279986  0.22301922    -0.04600
C1585       C  0.61351491  0.65408420  0.26480355    -0.05400
C1586       C  0.63510860  0.61308422  0.30685736    -0.05200
C1587       C  0.67853872  0.63827394  0.19207039    -0.30600
N1588       N  0.67658590  0.62421065  0.14321413     0.15900
C1589       C  0.65142493  0.60999999  0.14310768    -0.30600
H1590       H  0.64385551  0.59683417  0.10980893     0.17800
C1591       C  0.59883837  0.67894771  0.27397202    -0.29600
N1592       N  0.57318508  0.67732896  0.24843436     0.14600
C1593       C  0.57153684  0.65150221  0.22361474    -0.29600
C1594       C  0.64033554  0.59910389  0.35602171    -0.29900
N1595       N  0.62622981  0.57387571  0.35586335     0.15100
H1596       H  0.65344379  0.60672035  0.38937454     0.17700
C1597       C  0.61223656  0.57186762  0.30694168    -0.29900
H1598       H  0.59898114  0.55428091  0.29480528     0.17700
H1599       H  0.55370897  0.64406091  0.19971708     0.17700
H1600       H  0.69606778  0.65162411  0.20413804     0.17800
H1601       H  0.60628021  0.69689489  0.29750859     0.17700
N1602       N  0.49980128  0.70706394  0.24472827    -0.35000
N1603       N  0.95604090  0.75063788  0.24917392    -0.55600
N1604       N  0.49975723  0.79421658  0.24486108    -0.35000
N1605       N  0.54351822  0.75064451  0.24911307    -0.55600
C1606       C  0.97665957  0.69171415  0.25880850     0.28600
C1607       C  0.52297157  0.69171829  0.25884271     0.28600
C1608       C  0.97660060  0.80954961  0.25904070     0.28600
C1609       C  0.52290794  0.80956174  0.25892815     0.28600
C1610       C  0.94017035  0.72764663  0.23663245     0.37200
C1611       C  0.94014373  0.77365836  0.23676878     0.37200
C1612       C  0.55940660  0.72763560  0.23662383     0.37200
C1613       C  0.55937715  0.77364977  0.23661636     0.37200
C1614       C  0.98524736  0.66649882  0.28266614    -0.20300
C1615       C  0.51443137  0.66650175  0.28268925    -0.20300
C1616       C  0.98515781  0.83475249  0.28291932    -0.20300
C1617       C  0.51434128  0.83476154  0.28284207    -0.20300
C1618       C  0.91428320  0.73612382  0.21556324    -0.21300
C1619       C  0.91426417  0.76523314  0.21566081    -0.21300
C1620       C  0.58526681  0.73608535  0.21550422    -0.21300
C1621       C  0.58524679  0.76519495  0.21549448    -0.21300
C1622       C  0.94810846  0.69922413  0.24757559    -0.16700
C1623       C  0.55150684  0.69922084  0.24761779    -0.16700
C1624       C  0.55144580  0.80206409  0.24762805    -0.16700
C1625       C  0.94806057  0.80205975  0.24781232    -0.16700
H1626       H  0.97191531  0.64979028  0.29852481     0.16200
H1627       H  0.52779558  0.64979396  0.29856314     0.16200
H1628       H  0.97180431  0.85144971  0.29883364     0.16200
H1629       H  0.52768764  0.85146430  0.29869318     0.16200
H1630       H  0.89717585  0.72279366  0.20139212     0.14500
H1631       H  0.89714039  0.77859863  0.20158031     0.14500
H1632       H  0.60237980  0.72273592  0.20135982     0.14500
H1633       H  0.60234116  0.77854121  0.20134515     0.14500
H1634       H  0.49978414  0.72550114  0.22130237     0.27800
H1635       H  0.49975405  0.77579858  0.22139067     0.27800
C1636       C  0.89064149  0.89357681  0.21978156     0.31600
C1637       C  0.85715448  0.85993909  0.27953598     0.31600
C1638       C  0.86218628  0.88614473  0.19243054    -0.04600
C1639       C  0.90334619  0.86455754  0.23385165    -0.05400
C1640       C  0.88213259  0.90555592  0.27616521    -0.05200
C1641       C  0.84501479  0.86861060  0.22333059    -0.04600
C1642       C  0.88612605  0.84726608  0.26503678    -0.05400
C1643       C  0.86467485  0.88831486  0.30708081    -0.05200
C1644       C  0.82107938  0.86308539  0.19240831    -0.30600
N1645       N  0.82300369  0.87707346  0.14346059     0.15900
C1646       C  0.84816846  0.89128503  0.14327743    -0.30600
H1647       H  0.85573461  0.90438162  0.10987920     0.17800
C1648       C  0.90077493  0.82238321  0.27421748    -0.29600
N1649       N  0.92640153  0.82396298  0.24861985     0.14600
C1650       C  0.92806016  0.84977535  0.22374356    -0.29600
C1651       C  0.85956555  0.90228216  0.35628032    -0.29900
N1652       N  0.87372797  0.92747492  0.35608370     0.15100
H1653       H  0.84648870  0.89468531  0.38967673     0.17700
C1654       C  0.88765064  0.92946904  0.30710175    -0.29900
H1655       H  0.90092131  0.94703360  0.29492080     0.17700
H1656       H  0.94587588  0.85718550  0.19980389     0.17700
H1657       H  0.80357113  0.84972908  0.20454030     0.17800
H1658       H  0.89333751  0.80445369  0.29780805     0.17700
N1659       N  0.62458889  0.50062209  0.41490206    -0.35000
N1660       N  0.62702663  0.54466601  0.49950384    -0.55600
N1661       N  0.62453493  0.50062032  0.58406463    -0.35000
N1662       N  0.62684313  0.95656687  0.49946577    -0.55600
C1663       C  0.63155688  0.52379599  0.38471039     0.28600
C1664       C  0.63144515  0.97741688  0.38468254     0.28600
C1665       C  0.63145290  0.52378326  0.61431585     0.28600
C1666       C  0.63139195  0.97741597  0.61429395     0.28600
C1667       C  0.62136704  0.56081246  0.45465359     0.37200
C1668       C  0.62132517  0.56080193  0.54432847     0.37200
C1669       C  0.62111232  0.94045271  0.45462720     0.37200
C1670       C  0.62110382  0.94046012  0.54430812     0.37200
C1671       C  0.64317043  0.51515531  0.33515401    -0.20300
C1672       C  0.64309804  0.98600419  0.33513445    -0.20300
C1673       C  0.64302633  0.51514002  0.66393130    -0.20300
C1674       C  0.64299052  0.98599161  0.66391614    -0.20300
C1675       C  0.61180130  0.58718986  0.47113746    -0.21300
C1676       C  0.61177987  0.58718429  0.52781156    -0.21300
C1677       C  0.61145768  0.91412510  0.47113479    -0.21300
C1678       C  0.61145714  0.91412884  0.52781669    -0.21300
C1679       C  0.62628205  0.55251807  0.39922417    -0.16700
C1680       C  0.62606232  0.94872165  0.39919184    -0.16700
C1681       C  0.62604758  0.94872851  0.59974433    -0.16700
C1682       C  0.62619477  0.55249869  0.59977720    -0.16700
H1683       H  0.65101752  0.52845199  0.30231676     0.16200
H1684       H  0.65088230  0.97267294  0.30228276     0.16200
H1685       H  0.65082807  0.52843335  0.69682056     0.16200
H1686       H  0.65075870  0.97265376  0.69679595     0.16200
H1687       H  0.60536869  0.60463752  0.44518207     0.14500
H1688       H  0.60533673  0.60462605  0.55375076     0.14500
H1689       H  0.60497118  0.89670990  0.44518479     0.14500
H1690       H  0.60497787  0.89671738  0.55378474     0.14500
H1691       H  0.61302257  0.50065310  0.45131409     0.27800
H1692       H  0.61300367  0.50065202  0.54757736     0.27800
N1693       N  0.87526306  0.50073966  0.41506716    -0.35000
N1694       N  0.87289492  0.95668579  0.49968415    -0.55600
N1695       N  0.87525818  0.50071831  0.58426756    -0.35000
N1696       N  0.87288755  0.54477536  0.49962060    -0.55600
C1697       C  0.86836378  0.97754904  0.38487192     0.28600
C1698       C  0.86831891  0.52392554  0.38484295     0.28600
C1699       C  0.86833098  0.97754442  0.61448282     0.28600
C1700       C  0.86837211  0.52391625  0.61445898     0.28600
C1701       C  0.87862810  0.94055853  0.45486476     0.37200
C1702       C  0.87855268  0.94054396  0.54454383     0.37200
C1703       C  0.87854023  0.56091883  0.45478361     0.37200
C1704       C  0.87858156  0.56089757  0.54446234     0.37200
C1705       C  0.85670785  0.98615750  0.33530406    -0.20300
C1706       C  0.85668126  0.51530656  0.33528425    -0.20300
C1707       C  0.85672964  0.98617894  0.66405552    -0.20300
C1708       C  0.85676022  0.51532693  0.66404464    -0.20300
C1709       C  0.88821251  0.91419093  0.47140511    -0.21300
C1710       C  0.88815458  0.91417880  0.52808503    -0.21300
C1711       C  0.88810336  0.58727952  0.47129170    -0.21300
C1712       C  0.88812789  0.58726604  0.52797098    -0.21300
C1713       C  0.87370770  0.94884183  0.39941261    -0.16700
C1714       C  0.87360524  0.55263778  0.39934774    -0.16700
C1715       C  0.87365988  0.55261634  0.59989438    -0.16700
C1716       C  0.87358698  0.94882491  0.59995876    -0.16700
H1717       H  0.84888471  0.97284200  0.30246864     0.16200
H1718       H  0.84883525  0.52861531  0.30242975     0.16200
H1719       H  0.84890220  0.97288158  0.69690857     0.16200
H1720       H  0.84896094  0.52865545  0.69688667     0.16200
H1721       H  0.89468253  0.89675488  0.44547801     0.14500
H1722       H  0.89457038  0.89673558  0.55407156     0.14500
H1723       H  0.89451531  0.60472390  0.44534693     0.14500
H1724       H  0.89455028  0.60470001  0.55393568     0.14500
H1725       H  0.88683591  0.50073908  0.45150568     0.27800
H1726       H  0.88680223  0.50070248  0.54779597     0.27800
C1727       C  0.64264952  0.85983742  0.71967935     0.31600
C1728       C  0.60885499  0.89334111  0.77911480     0.31600
C1729       C  0.63514172  0.88822662  0.69214325    -0.04600
C1730       C  0.61365243  0.84708981  0.73366611    -0.05400
C1731       C  0.65455937  0.86846198  0.77605814    -0.05200
C1732       C  0.61752740  0.90539903  0.72289231    -0.04600
C1733       C  0.59627673  0.86432711  0.76471991    -0.05400
C1734       C  0.63723927  0.88592143  0.80681754    -0.05200
C1735       C  0.61197989  0.92930788  0.69191958    -0.30600
N1736       N  0.62602793  0.92736195  0.64306905     0.15900
C1737       C  0.64030685  0.90221508  0.64298842    -0.30600
H1738       H  0.65347215  0.89465361  0.60967866     0.17800
C1739       C  0.57141584  0.84967120  0.77378074    -0.29600
N1740       N  0.57306142  0.82403556  0.74820118     0.14600
C1741       C  0.59891362  0.82237878  0.72346538    -0.29600
C1742       C  0.65117953  0.89115179  0.85602415    -0.29900
N1743       N  0.67644219  0.87706284  0.85596237     0.15100
H1744       H  0.64351536  0.90425958  0.88933203     0.17700
C1745       C  0.67850453  0.86307403  0.80705821    -0.29900
H1746       H  0.69613533  0.84984089  0.79497369     0.17700
H1747       H  0.60637689  0.80457443  0.69952709     0.17700
H1748       H  0.59858569  0.94682421  0.70396157     0.17800
H1749       H  0.55344834  0.85712096  0.79726456     0.17700
N1750       N  0.54333884  0.75067462  0.74421511    -0.35000
N1751       N  0.99974320  0.79444463  0.74913791    -0.55600
N1752       N  0.95614791  0.75072686  0.74463572    -0.35000
N1753       N  0.99974443  0.70695784  0.74882746    -0.55600
C1754       C  0.55872230  0.77381093  0.75828601     0.28600
C1755       C  0.55872287  0.72750273  0.75823453     0.28600
C1756       C  0.94079016  0.77387521  0.75884920     0.28600
C1757       C  0.94078020  0.72756907  0.75861342     0.28600
C1758       C  0.52272778  0.81033223  0.73660998     0.37200
C1759       C  0.97670814  0.81036521  0.73689642     0.37200
C1760       C  0.52274793  0.69104570  0.73637103     0.37200
C1761       C  0.97672367  0.69107963  0.73646387     0.37200
C1762       C  0.58397780  0.76521462  0.78196752    -0.20300
C1763       C  0.58397750  0.73604128  0.78193894    -0.20300
C1764       C  0.91556733  0.76530138  0.78259110    -0.20300
C1765       C  0.91555965  0.73612690  0.78243686    -0.20300
C1766       C  0.51422852  0.83624899  0.71574473    -0.21300
C1767       C  0.98512093  0.83627180  0.71593487    -0.21300
C1768       C  0.51427608  0.66515333  0.71543266    -0.21300
C1769       C  0.98516686  0.66517658  0.71548334    -0.21300
C1770       C  0.55117598  0.80237504  0.74730793    -0.16700
C1771       C  0.55118675  0.69895907  0.74717276    -0.16700
C1772       C  0.94830121  0.69902595  0.74741371    -0.16700
C1773       C  0.94829848  0.80243041  0.74784462    -0.16700
H1774       H  0.60069931  0.77853213  0.79783897     0.16200
H1775       H  0.60070064  0.72268568  0.79778065     0.16200
H1776       H  0.89886313  0.77863609  0.79853558     0.16200
H1777       H  0.89885124  0.72278274  0.79825359     0.16200
H1778       H  0.52754328  0.85336679  0.70159199     0.14500
H1779       H  0.97174896  0.85340861  0.70194720     0.14500
H1780       H  0.52761057  0.64802079  0.70132783     0.14500
H1781       H  0.97181288  0.64806431  0.70143081     0.14500
H1782       H  0.52487567  0.75070030  0.72097574     0.27800
H1783       H  0.97456711  0.75074231  0.72130205     0.27800
C1784       C  0.89069550  0.60803587  0.77924635     0.31600
C1785       C  0.85686218  0.64148458  0.71974154     0.31600
C1786       C  0.86228957  0.61538330  0.80686545    -0.04600
C1787       C  0.90322952  0.63707031  0.76490165    -0.05400
C1788       C  0.88206651  0.59597260  0.72300798    -0.05200
C1789       C  0.84494614  0.63281974  0.77607249    -0.04600
C1790       C  0.88583213  0.65428725  0.73381636    -0.05400
C1791       C  0.86442744  0.61311430  0.69220998    -0.05200
C1792       C  0.82096676  0.63812258  0.80698193    -0.30600
N1793       N  0.82303595  0.62410032  0.85586323     0.15900
C1794       C  0.84833197  0.61007233  0.85599194    -0.30600
H1795       H  0.85601009  0.59695467  0.88929678     0.17800
C1796       C  0.90055123  0.67901154  0.72360762    -0.29600
N1797       N  0.92641645  0.67736784  0.74834867     0.14600
C1798       C  0.92808828  0.65173673  0.77395057    -0.29600
C1799       C  0.85929289  0.59910945  0.64305736    -0.29900
N1800       N  0.87362094  0.57398804  0.64319522     0.15100
H1801       H  0.84611406  0.60664209  0.60971277     0.17700
C1802       C  0.88766520  0.57207303  0.69207855    -0.29900
H1803       H  0.90108960  0.55458289  0.70417496     0.17700
H1804       H  0.94608024  0.64429074  0.79740786     0.17700
H1805       H  0.80331254  0.65132473  0.79485592     0.17800
H1806       H  0.89307408  0.69680803  0.69963672     0.17700
N1807       N  0.74973317  0.87548631  0.08427675    -0.35000
N1808       N  0.70564285  0.87794125  0.99964233    -0.55600
N1809       N  0.74970658  0.87567706  0.91515166    -0.35000
N1810       N  0.79379512  0.87806742  0.99978665    -0.55600
C1811       C  0.72652568  0.88231316  0.11452894     0.28600
C1812       C  0.77290558  0.88233995  0.11462631     0.28600
C1813       C  0.72649917  0.88255993  0.88489397     0.28600
C1814       C  0.77288696  0.88262611  0.88495869     0.28600
C1815       C  0.68954112  0.87216067  0.04445989     0.37200
C1816       C  0.68952078  0.87223713  0.95478331     0.37200
C1817       C  0.80992394  0.87229063  0.04462599     0.37200
C1818       C  0.80991638  0.87238176  0.95493035     0.37200
C1819       C  0.73510921  0.89382691  0.16420548    -0.20300
C1820       C  0.76426007  0.89384154  0.16426931    -0.20300
C1821       C  0.73509199  0.89422047  0.83535957    -0.20300
C1822       C  0.76424813  0.89426341  0.83540086    -0.20300
C1823       C  0.66320195  0.86253439  0.02792731    -0.21300
C1824       C  0.66319054  0.86257689  0.97125106    -0.21300
C1825       C  0.83628048  0.86268834  0.02810532    -0.21300
C1826       C  0.83627440  0.86274058  0.97142597    -0.21300
C1827       C  0.69782833  0.87700800  0.09992168    -0.16700
C1828       C  0.80162801  0.87709549  0.10009862    -0.16700
C1829       C  0.80160908  0.87729757  0.89947846    -0.16700
C1830       C  0.69779772  0.87717373  0.89935698    -0.16700
H1831       H  0.72177593  0.90156209  0.19709564     0.16200
H1832       H  0.77754974  0.90159624  0.19721374     0.16200
H1833       H  0.72175937  0.90201992  0.80249397     0.16200
H1834       H  0.77755024  0.90210070  0.80256865     0.16200
H1835       H  0.64579727  0.85601499  0.05386362     0.14500
H1836       H  0.64577592  0.85609169  0.94528026     0.14500
H1837       H  0.85370393  0.85616306  0.05404913     0.14500
H1838       H  0.85369408  0.85626011  0.94547051     0.14500
H1839       H  0.74975720  0.86404185  0.04779241     0.27800
H1840       H  0.74973385  0.86410603  0.95152515     0.27800
N1841       N  0.74981730  0.62562193  0.08409666    -0.35000
N1842       N  0.79387919  0.62314263  0.99952166    -0.55600
N1843       N  0.74978215  0.62542319  0.91497233    -0.35000
N1844       N  0.70572104  0.62306533  0.99956602    -0.55600
C1845       C  0.77302247  0.61880367  0.11438745     0.28600
C1846       C  0.72664986  0.61880751  0.11442629     0.28600
C1847       C  0.77297989  0.61856458  0.88472502     0.28600
C1848       C  0.72658786  0.61851563  0.88474981     0.28600
C1849       C  0.80998932  0.62893892  0.04435144     0.37200
C1850       C  0.80998140  0.62886377  0.95467054     0.37200
C1851       C  0.68962524  0.62889132  0.04438834     0.37200
C1852       C  0.68959261  0.62878158  0.95470139     0.37200
C1853       C  0.76444326  0.60731834  0.16408845    -0.20300
C1854       C  0.73529228  0.60732463  0.16411647    -0.20300
C1855       C  0.76436701  0.60695185  0.83514665    -0.20300
C1856       C  0.73520789  0.60691851  0.83516406    -0.20300
C1857       C  0.83631669  0.63858244  0.02783535    -0.21300
C1858       C  0.83631003  0.63854297  0.97116022    -0.21300
C1859       C  0.66328094  0.63854416  0.02785171    -0.21300
C1860       C  0.66326151  0.63848109  0.97117537    -0.21300
C1861       C  0.80171195  0.62411757  0.09981877    -0.16700
C1862       C  0.69793807  0.62410136  0.09987027    -0.16700
C1863       C  0.69787331  0.62386860  0.89925663    -0.16700
C1864       C  0.80168722  0.62394649  0.89922801    -0.16700
H1865       H  0.77777912  0.59960417  0.19702440     0.16200
H1866       H  0.72199958  0.59961286  0.19707463     0.16200
H1867       H  0.77768751  0.59918606  0.80226302     0.16200
H1868       H  0.72189198  0.59912497  0.80229249     0.16200
H1869       H  0.85372120  0.64512276  0.05378140     0.14500
H1870       H  0.85370962  0.64505544  0.94520656     0.14500
H1871       H  0.64588537  0.64511506  0.05378545     0.14500
H1872       H  0.64584674  0.64500251  0.94520815     0.14500
H1873       H  0.74979191  0.63706600  0.04756257     0.27800
H1874       H  0.74977207  0.63697107  0.95138798     0.27800
C1875       C  0.85680813  0.85995228  0.71989301     0.31600
C1876       C  0.89054234  0.89342795  0.77944301     0.31600
C1877       C  0.84484490  0.86860898  0.77621546    -0.04600
C1878       C  0.88579600  0.84718770  0.73405309    -0.05400
C1879       C  0.86432418  0.88833419  0.69234022    -0.05200
C1880       C  0.86214193  0.88606182  0.80703641    -0.04600
C1881       C  0.90313285  0.86440213  0.76514858    -0.05400
C1882       C  0.88191275  0.90548826  0.72317685    -0.05200
C1883       C  0.84819583  0.89128659  0.85621688    -0.30600
N1884       N  0.82295366  0.87720351  0.85609858     0.15900
C1885       C  0.82091067  0.86322039  0.80717732    -0.30600
H1886       H  0.80330776  0.84997740  0.79506842     0.17800
C1887       C  0.92800443  0.84972949  0.77432587    -0.29600
N1888       N  0.92638770  0.82409323  0.74876251     0.14600
C1889       C  0.90055183  0.82245765  0.72393459    -0.29600
C1890       C  0.88751773  0.92937120  0.69221880    -0.29900
N1891       N  0.87352308  0.92745286  0.64328645     0.15100
H1892       H  0.90092178  0.94685067  0.70432497     0.17700
C1893       C  0.85923112  0.90233018  0.64313273    -0.29900
H1894       H  0.84610933  0.89478740  0.60973662     0.17700
H1895       H  0.89311792  0.80466123  0.69995839     0.17700
H1896       H  0.85584985  0.90437316  0.88956027     0.17800
H1897       H  0.94596478  0.85717579  0.79783709     0.17700
C1898       C  0.85714078  0.64153461  0.27919503     0.31600
C1899       C  0.89066131  0.60778131  0.21967803     0.31600
C1900       C  0.84505822  0.63284465  0.22297260    -0.04600
C1901       C  0.88614059  0.65414350  0.26475445    -0.05400
C1902       C  0.86462338  0.61315972  0.30685654    -0.05200
C1903       C  0.86224821  0.61525121  0.19221553    -0.04600
C1904       C  0.90338947  0.63678455  0.23366991    -0.05400
C1905       C  0.88209378  0.59587017  0.27605567    -0.05200
C1906       C  0.84825614  0.61001594  0.14309741    -0.30600
N1907       N  0.82308021  0.62423709  0.14316170     0.15900
C1908       C  0.82112145  0.63831739  0.19199454    -0.30600
H1909       H  0.80357640  0.65167564  0.20402827     0.17800
C1910       C  0.92812035  0.65151033  0.22359890    -0.29600
N1911       N  0.92645216  0.67734514  0.24839464     0.14600
C1912       C  0.90080188  0.67899246  0.27391023    -0.29600
C1913       C  0.88757527  0.57195601  0.30704300    -0.29900
N1914       N  0.87362063  0.57399253  0.35597737     0.15100
H1915       H  0.90085308  0.55436386  0.29493326     0.17700
C1916       C  0.85946501  0.59921593  0.35607617    -0.29900
H1917       H  0.84636734  0.60685353  0.38942042     0.17700
H1918       H  0.89335476  0.69694879  0.29743209     0.17700
H1919       H  0.85583411  0.59683361  0.10982481     0.17800
H1920       H  0.94595084  0.64404885  0.19973364     0.17700
C1921       C  0.64269883  0.64139806  0.71962230     0.31600
C1922       C  0.60889313  0.60793962  0.77906295     0.31600
C1923       C  0.65460212  0.63275971  0.77602269    -0.04600
C1924       C  0.61368903  0.65416761  0.73356759    -0.05400
C1925       C  0.63522169  0.61300326  0.69212251    -0.05200
C1926       C  0.63727405  0.61531844  0.80678829    -0.04600
C1927       C  0.59632357  0.63696199  0.76460753    -0.05400
C1928       C  0.61759603  0.59585058  0.72287293    -0.05200
C1929       C  0.65123446  0.61001718  0.85595379    -0.30600
N1930       N  0.67651077  0.62404164  0.85587346     0.15900
C1931       C  0.67856304  0.63806426  0.80699521    -0.30600
H1932       H  0.69620276  0.65125541  0.79490027     0.17800
C1933       C  0.57144850  0.65163994  0.77364875    -0.29600
N1934       N  0.57308064  0.67727177  0.74806045     0.14600
C1935       C  0.59893630  0.67889818  0.72334126    -0.29600
C1936       C  0.61209441  0.57193494  0.69193381    -0.29900
N1937       N  0.62617716  0.57385312  0.64311521     0.15100
H1938       H  0.59870046  0.55443750  0.70396822     0.17700
C1939       C  0.64043729  0.59898827  0.64302294    -0.29900
H1940       H  0.65361944  0.60652816  0.60973395     0.17700
H1941       H  0.60639683  0.69669786  0.69940753     0.17700
H1942       H  0.64357981  0.59689522  0.88923846     0.17800
H1943       H  0.55348258  0.64420763  0.79713077     0.17700
C1944       C  0.64240569  0.85978019  0.27924940     0.31600
C1945       C  0.60889105  0.89350293  0.21961022     0.31600
C1946       C  0.65448020  0.86842514  0.22302552    -0.04600
C1947       C  0.61340329  0.84716349  0.26482068    -0.05400
C1948       C  0.63494075  0.88816792  0.30682494    -0.05200
C1949       C  0.63729643  0.88600317  0.19219097    -0.04600
C1950       C  0.59615031  0.86451122  0.23367714    -0.05400
C1951       C  0.61747541  0.90545196  0.27596488    -0.05200
C1952       C  0.65128953  0.89118589  0.14306919    -0.30600
N1953       N  0.67645734  0.87694509  0.14322392     0.15900
C1954       C  0.67840788  0.86290411  0.19210855    -0.30600
H1955       H  0.69594125  0.84953839  0.20421875     0.17800
C1956       C  0.57141735  0.84977847  0.22360462    -0.29600
N1957       N  0.57309614  0.82394865  0.24844098     0.14600
C1958       C  0.59875111  0.82231097  0.27398880    -0.29600
C1959       C  0.61203118  0.92939204  0.30689270    -0.29900
N1960       N  0.62599732  0.92736034  0.35584820     0.15100
H1961       H  0.59877324  0.94699637  0.29473022     0.17700
C1962       C  0.64012457  0.90212361  0.35601626    -0.29900
H1963       H  0.65322255  0.89448583  0.38939036     0.17700
H1964       H  0.60620880  0.80435661  0.29753000     0.17700
H1965       H  0.64371746  0.90434510  0.10973373     0.17800
H1966       H  0.55358128  0.85722826  0.19970128     0.17700
C1967       C  0.55847894  0.94424852  0.12934281     0.44100
N1968       N  0.53296322  0.95160402  0.05892081     0.03000
C1969       C  0.53171822  0.57018322  0.89722890    -0.04900
H1970       H  0.51929092  0.58793279  0.11196725     0.08500
C1971       C  0.93051707  0.53218779  0.10151919    -0.05300
Co1972     Co  0.55109430  0.50298087  0.99890382     0.74200
N1973       N  0.52844117  0.55244156  0.05917945    -0.24400
Co1974     Co  0.99745676  0.55217340  0.99966786     0.74100
C1975       C  0.94112433  0.55697806  0.12970007     0.44200
N1976       N  0.95062426  0.96762693  0.05863833     0.02600
N1977       N  0.96664210  0.54965911  0.05929570     0.02700
N1978       N  0.56635220  0.53713798  0.89807626    -0.45300
H1979       H  0.58753440  0.98180625  0.10999125     0.08400
N1980       N  0.54899260  0.53363876  0.05868761     0.03000
N1981       N  0.96668173  0.54998506  0.93993671     0.02700
C1982       C  0.94155600  0.55751049  0.86905236     0.44300
N1983       N  0.97116309  0.94880786  0.05896172    -0.23900
C1984       C  0.56851916  0.96899493  0.89615372    -0.04800
N1985       N  0.53651540  0.93402287  0.10047175    -0.45000
N1986       N  0.96325480  0.56774878  0.89863950    -0.45200
C1987       C  0.55797882  0.94393515  0.86875148     0.44100
N1988       N  0.54868073  0.53379833  0.93947195     0.03000
N1989       N  0.97119116  0.94868230  0.93976576    -0.23900
N1990       N  0.55173882  0.97214527  0.05840372    -0.24400
N1991       N  0.95081263  0.96766779  0.93943838     0.02600
H1992       H  0.98034277  0.91283273  0.88790784     0.08500
H1993       H  0.91267161  0.51964279  0.88702372     0.08500
N1994       N  0.52831372  0.55279757  0.93997085    -0.24500
N1995       N  0.94786747  0.52911778  0.05872000    -0.24100
N1996       N  0.53281648  0.95145565  0.93956366     0.03000
C1997       C  0.55703072  0.55863568  0.12944720     0.44400
C1998       C  0.96767654  0.93164480  0.10201651    -0.05300
N1999       N  0.94807444  0.52928951  0.93963049    -0.24100
H2000       H  0.91206030  0.51943994  0.11020386     0.08500
N2001       N  0.56691374  0.53684840  0.09975337    -0.45300
H2002       H  0.98034187  0.91321568  0.11152999     0.08500
C2003       C  0.94295369  0.94235331  0.86903108     0.44200
C2004       C  0.56909386  0.96904698  0.10121806    -0.04800
Co2005     Co  0.00209535  0.94918443  0.99936852     0.73800
N2006       N  0.93274728  0.96436341  0.09972569    -0.45000
C2007       C  0.55649039  0.55923839  0.86920443     0.44500
N2008       N  0.53626941  0.93369394  0.89828301    -0.45000
Co2009     Co  0.94845602  0.99837995  0.99904902     0.73900
C2010       C  0.93098287  0.53246557  0.89643409    -0.05300
C2011       C  0.53195359  0.56952332  0.10233453    -0.04900
N2012       N  0.55141468  0.97215973  0.93930597    -0.24400
N2013       N  0.96308835  0.56721480  0.10087144    -0.45200
H2014       H  0.51913283  0.58875016  0.88833628     0.08500
C2015       C  0.96776598  0.93138611  0.89691596    -0.05300
Cl2016     Cl  0.99977601  0.50067995  0.99926176    -0.48300
C2017       C  0.94264060  0.94251443  0.12925831     0.44200
H2018       H  0.58684817  0.98180636  0.88684198     0.08400
N2019       N  0.93310133  0.96439133  0.89806096    -0.45000
C2020       C  0.69126786  0.69376511  0.36971329     0.44100
N2021       N  0.71674245  0.70172243  0.43989366     0.03000
C2022       C  0.71829060  0.81974037  0.60227228    -0.04900
H2023       H  0.73078951  0.83810270  0.38811825     0.08500
C2024       C  0.81923074  0.78283680  0.39767263    -0.05300
Co2025     Co  0.69832716  0.75300287  0.49991006     0.74200
N2026       N  0.72123244  0.80248130  0.44019939    -0.24400
Co2027     Co  0.75211938  0.80200881  0.49969519     0.74100
C2028       C  0.80836111  0.80776502  0.37003852     0.44200
N2029       N  0.79909835  0.71760141  0.44015405     0.02600
N2030       N  0.78290695  0.79974215  0.44016825     0.02700
N2031       N  0.68322353  0.78722887  0.60126082    -0.45300
H2032       H  0.66183221  0.73123542  0.38846944     0.08400
N2033       N  0.70055916  0.78384251  0.44028490     0.03000
N2034       N  0.78281126  0.79976732  0.55936152     0.02700
C2035       C  0.80780687  0.80765035  0.63021285     0.44300
N2036       N  0.77840764  0.69898193  0.43996892    -0.23900
C2037       C  0.68088809  0.71854758  0.60254262    -0.04800
N2038       N  0.71335035  0.68393136  0.39869288    -0.45000
N2039       N  0.78596918  0.81754129  0.60064661    -0.45200
C2040       C  0.69182038  0.69354651  0.62984827     0.44100
N2041       N  0.70077818  0.78375974  0.55965897     0.03000
N2042       N  0.77830820  0.69881090  0.55906533    -0.23900
N2043       N  0.69778606  0.72213567  0.44017925    -0.24400
N2044       N  0.79887614  0.71755307  0.55954522     0.02600
H2045       H  0.76851385  0.66317708  0.61092497     0.08500
H2046       H  0.83721981  0.77006273  0.61228448     0.08500
N2047       N  0.72134237  0.80250722  0.55928846    -0.24500
N2048       N  0.80185381  0.77931845  0.44037170    -0.24100
N2049       N  0.71683509  0.70151924  0.55909631     0.03000
C2050       C  0.69294490  0.80922166  0.36979540     0.44400
C2051       C  0.78163596  0.68175308  0.39701524    -0.05300
N2052       N  0.80167825  0.77927895  0.55958965    -0.24100
H2053       H  0.83777676  0.77025282  0.38864096     0.08500
N2054       N  0.68275116  0.78740114  0.39908349    -0.45300
H2055       H  0.76883589  0.66340004  0.38780916     0.08500
C2056       C  0.80607769  0.69221575  0.63028103     0.44200
C2057       C  0.68039191  0.71865464  0.39745517    -0.04800
Co2058     Co  0.74753059  0.69937591  0.49944323     0.73800
N2059       N  0.81692002  0.71404311  0.39899899    -0.45000
C2060       C  0.69347616  0.80911174  0.63032126     0.44500
N2061       N  0.71364723  0.68367142  0.60026692    -0.45000
Co2062     Co  0.80133321  0.74837601  0.49993831     0.73900
C2063       C  0.81877324  0.78270742  0.60278006    -0.05300
C2064       C  0.71799517  0.81974085  0.39727744    -0.04900
N2065       N  0.69798826  0.72202571  0.55940996    -0.24400
N2066       N  0.78629725  0.81758505  0.39904438    -0.45200
H2067       H  0.73104976  0.83816611  0.61114504     0.08500
C2068       C  0.78130315  0.68158370  0.60208232    -0.05300
Cl2069     Cl  0.74982784  0.75069156  0.49970686    -0.48300
C2070       C  0.80671126  0.69224888  0.36962987     0.44200
H2071       H  0.66245700  0.73119929  0.61207938     0.08400
N2072       N  0.81637595  0.71408975  0.60126733    -0.45000
C2073       C  0.57549512  0.92683726  0.16260968    -0.11700
C2074       C  0.59063527  0.91171742  0.18828858    -0.13200
C2075       C  0.66048553  0.84137846  0.31060473    -0.11700
C2076       C  0.67550570  0.82618595  0.33642385    -0.13200
C2077       C  0.66080474  0.65981513  0.68846189    -0.11700
C2078       C  0.67530725  0.67561761  0.66299493    -0.08400
C2079       C  0.59025306  0.59006181  0.81024527    -0.11700
C2080       C  0.57434603  0.57574084  0.83586766    -0.13200
C2081       C  0.90892285  0.58954412  0.18843800    -0.11700
C2082       C  0.92407586  0.57440210  0.16286047    -0.13200
C2083       C  0.83908444  0.65998324  0.31049890    -0.11700
C2084       C  0.82413155  0.67524789  0.33629355    -0.13200
C2085       C  0.82431810  0.82559941  0.66331928    -0.11700
C2086       C  0.83876205  0.84148601  0.68871723    -0.13200
C2087       C  0.92502839  0.92578181  0.83599833    -0.11700
C2088       C  0.90913096  0.91135017  0.81060476    -0.13200
C2089       C  0.90919731  0.59000064  0.81042825    -0.11700
C2090       C  0.92452576  0.57498993  0.83593506    -0.13200
C2091       C  0.83861271  0.65977835  0.68859954    -0.11700
C2092       C  0.82350643  0.67507987  0.66326328    -0.13200
C2093       C  0.59037061  0.91141324  0.81026233    -0.11700
C2094       C  0.57504493  0.92644517  0.83572040    -0.13200
C2095       C  0.67600432  0.82623482  0.66323572    -0.11700
C2096       C  0.66088447  0.84152192  0.68855886    -0.13200
C2097       C  0.82487352  0.82562767  0.33672033    -0.11700
C2098       C  0.83924704  0.84142424  0.31094437    -0.13200
C2099       C  0.92478495  0.92603563  0.16263354    -0.11700
C2100       C  0.90905062  0.91158971  0.18838716    -0.13200
C2101       C  0.66043208  0.66005397  0.31056877    -0.11700
C2102       C  0.67476372  0.67590577  0.33633453    -0.13200
C2103       C  0.59063561  0.58966657  0.18836500    -0.11700
C2104       C  0.57492161  0.57513860  0.16272279    -0.13200
loop_ 
_geom_bond_atom_site_label_1 
_geom_bond_atom_site_label_2 
_geom_bond_distance 
_geom_bond_site_symmetry_2 
_ccdc_geom_bond_type 
C1            C3   1.541       .  S
C1            C5   1.537       .  S
C1            C4   1.536       .  S
C1          C525   1.438       .  S
C2            C6   1.537       .  S
C2            C8   1.541       .  S
C2            C7   1.536       .  S
C2          C523   1.438       .  S
C3           C11   1.387       .  A
C3            C6   1.383       .  A
C4           C15   1.383       .  A
C4            C7   1.381       .  A
C5           C19   1.383       .  A
C5            C8   1.383       .  A
C6            C9   1.383       .  A
C7           C13   1.383       .  A
C8           C16   1.388       .  A
C9           N10   1.365       .  A
C9           H22   1.082       .  S
N10          C11   1.366       .  A
N10         C284   1.460       .  S
C11          H12   1.082       .  S
C13          N14   1.364       .  A
C13          H23   1.082       .  S
N14          C15   1.364       .  A
N14          C45   1.456       .  S
C15          H21   1.082       .  S
C16          N17   1.367       .  A
C16          H18   1.082       .  S
N17          C19   1.364       .  A
N17         C101   1.460       .  S
C19          H20   1.082       .  S
N24          C29   1.357   1_655  A
N24        C1080   1.357       .  A
N24          H56   1.041       .  S
N25          C32   1.356       .  A
N25          C33   1.356       .  A
N26          C31   1.357   1_655  A
N26        C1082   1.357       .  A
N26          H57   1.041       .  S
N27          C34   1.356       .  A
N27          C35   1.356       .  A
C28          C36   1.386       .  A
C28          C44   1.422       .  A
C28        N1076   1.357       .  A
C29          C45   1.422       .  A
C29          C37   1.386       .  A
C30          C38   1.386       .  A
C30          C47   1.421       .  A
C30        N1078   1.357       .  A
C31          C46   1.421       .  A
C31          C39   1.386       .  A
C32          C44   1.420       .  A
C32          C40   1.385       .  A
C33          C47   1.420       .  A
C33          C41   1.385       .  A
C34          C42   1.385       .  A
C34          C45   1.420       .  A
C35          C43   1.385       .  A
C35          C46   1.420       .  A
C36        C1089   1.379       .  A
C36          H48   1.082       .  S
C37        C1088   1.380   1_455  A
C37          H49   1.082       .  S
C38        C1091   1.379       .  A
C38          H50   1.082       .  S
C39        C1090   1.379   1_455  A
C39          H51   1.082       .  S
C40          C41   1.376       .  A
C40          H52   1.082       .  S
C41          H53   1.082       .  S
C42          C43   1.376       .  A
C42          H54   1.082       .  S
C43          H55   1.082       .  S
C44         N333   1.456       .  S
C46         N379   1.456       .  S
C47          N71   1.456       .  S
C58          C60   1.541       .  S
C58          C62   1.537       .  S
C58          C61   1.536       .  S
C58         C522   1.438       .  S
C59          C63   1.537       .  S
C59          C65   1.541       .  S
C59          C64   1.536       .  S
C59         C520   1.438       .  S
C60          C68   1.388       .  A
C60          C63   1.383       .  A
C61          C72   1.383       .  A
C61          C64   1.381       .  A
C62          C76   1.383       .  A
C62          C65   1.383       .  A
C63          C66   1.383       .  A
C64          C70   1.383       .  A
C65          C73   1.388       .  A
C66          N67   1.365       .  A
C66          H79   1.082       .  S
N67          C68   1.367       .  A
N67         C250   1.460       .  S
C68          H69   1.082       .  S
C70          N71   1.364       .  A
C70          H80   1.082       .  S
N71          C72   1.364       .  A
C72          H78   1.082       .  S
C73          N74   1.367       .  A
C73          H75   1.082       .  S
N74          C76   1.364       .  A
N74         C135   1.460       .  S
C76          H77   1.082       .  S
N81          C85   1.359       .  A
N81         C612   1.360   1_545  A
N81         H113   1.041       .  S
N82          C89   1.357       .  A
N82          C90   1.357       .  A
N83          C87   1.359       .  A
N83         C614   1.359   1_545  A
N83         H114   1.041       .  S
N84          C91   1.357       .  A
N84          C92   1.357       .  A
C85          C93   1.386       .  A
C85         C101   1.425       .  A
C86         C102   1.425       .  A
C86          C94   1.386       .  A
C86         N607   1.360       .  A
C87          C95   1.386       .  A
C87         C104   1.424       .  A
C88         C103   1.424       .  A
C88          C96   1.386       .  A
C88         N609   1.359       .  A
C89         C101   1.423       .  A
C89          C97   1.385       .  A
C90         C104   1.423       .  A
C90          C98   1.385       .  A
C91          C99   1.385       .  A
C91         C102   1.423       .  A
C92         C100   1.385       .  A
C92         C103   1.423       .  A
C93         C620   1.378   1_545  A
C93         H105   1.082       .  S
C94         C619   1.378       .  A
C94         H106   1.082       .  S
C95         C622   1.378   1_545  A
C95         H107   1.082       .  S
C96         C621   1.378       .  A
C96         H108   1.082       .  S
C97          C98   1.378       .  A
C97         H109   1.082       .  S
C98         H110   1.082       .  S
C99         C100   1.378       .  A
C99         H111   1.082       .  S
C100        H112   1.082       .  S
C102        N382   1.460       .  S
C103        N158   1.459       .  S
C104        N359   1.459       .  S
N115        C120   1.359       .  A
N115        C645   1.359   1_545  A
N115        H147   1.041       .  S
N116        C123   1.357       .  A
N116        C124   1.357       .  A
N117        C122   1.359       .  A
N117        C647   1.359   1_545  A
N117        H148   1.041       .  S
N118        C125   1.357       .  A
N118        C126   1.357       .  A
C119        C127   1.386       .  A
C119        C135   1.425       .  A
C119        N641   1.359       .  A
C120        C136   1.425       .  A
C120        C128   1.386       .  A
C121        C129   1.386       .  A
C121        C138   1.425       .  A
C121        N643   1.359       .  A
C122        C137   1.425       .  A
C122        C130   1.386       .  A
C123        C135   1.423       .  A
C123        C131   1.385       .  A
C124        C138   1.423       .  A
C124        C132   1.385       .  A
C125        C133   1.385       .  A
C125        C136   1.423       .  A
C126        C134   1.385       .  A
C126        C137   1.423       .  A
C127        C654   1.378       .  A
C127        H139   1.082       .  S
C128        C653   1.378   1_545  A
C128        H140   1.082       .  S
C129        C656   1.378       .  A
C129        H141   1.082       .  S
C130        C655   1.378   1_545  A
C130        H142   1.082       .  S
C131        C132   1.378       .  A
C131        H143   1.082       .  S
C132        H144   1.082       .  S
C133        C134   1.378       .  A
C133        H145   1.082       .  S
C134        H146   1.082       .  S
C136        N336   1.460       .  S
C137        N222   1.459       .  S
C138        N313   1.460       .  S
C149        C151   1.541       .  S
C149        C153   1.537       .  S
C149        C152   1.536       .  S
C149        C518   1.437       .  S
C150        C154   1.537       .  S
C150        C156   1.541       .  S
C150        C155   1.536       .  S
C150        C515   1.438       .  S
C151        C159   1.388       .  A
C151        C154   1.382       .  A
C152        C163   1.383       .  A
C152        C155   1.381       .  A
C153        C167   1.383       .  A
C153        C156   1.382       .  A
C154        C157   1.383       .  A
C155        C161   1.382       .  A
C156        C164   1.388       .  A
C157        N158   1.364       .  A
C157        H170   1.082       .  S
N158        C159   1.367       .  A
C159        H160   1.082       .  S
C161        N162   1.364       .  A
C161        H171   1.082       .  S
N162        C163   1.364       .  A
N162        C192   1.456       .  S
C163        H169   1.082       .  S
C164        N165   1.367       .  A
C164        H166   1.082       .  S
N165        C167   1.364       .  A
N165        C252   1.460       .  S
C167        H168   1.082       .  S
N172        C177   1.358       .  A
N172        C176   1.358       .  A
N172        H204   1.039       .  S
N173        C181   1.356       .  A
N173       C1232   1.356       .  A
N174        C179   1.358       .  A
N174        C178   1.358       .  A
N174        H205   1.039       .  S
N175        C183   1.356       .  A
N175       C1234   1.356       .  A
C176        C184   1.386       .  A
C176        C192   1.422       .  A
C177        C193   1.422       .  A
C177        C185   1.386       .  A
C178        C186   1.386       .  A
C178        C195   1.422       .  A
C179        C194   1.422       .  A
C179        C187   1.386       .  A
C180        C192   1.420       .  A
C180        C188   1.385       .  A
C180       N1225   1.356   1_455  A
C181        C195   1.420       .  A
C181        C189   1.385       .  A
C182        C190   1.385       .  A
C182        C193   1.420       .  A
C182       N1227   1.356   1_455  A
C183        C191   1.385       .  A
C183        C194   1.420       .  A
C184        C185   1.379       .  A
C184        H196   1.082       .  S
C185        H197   1.082       .  S
C186        C187   1.379       .  A
C186        H198   1.082       .  S
C187        H199   1.082       .  S
C188       C1241   1.376   1_455  A
C188        H200   1.082       .  S
C189       C1240   1.376       .  A
C189        H201   1.082       .  S
C190       C1243   1.376   1_455  A
C190        H202   1.082       .  S
C191       C1242   1.376       .  A
C191        H203   1.082       .  S
C193        N356   1.456       .  S
C194        N219   1.456       .  S
C195        N310   1.456       .  S
C206        C208   1.541       .  S
C206        C210   1.537       .  S
C206        C209   1.536       .  S
C206        C511   1.437       .  S
C207        C211   1.537       .  S
C207        C213   1.541       .  S
C207        C212   1.536       .  S
C207        C513   1.436       .  S
C208        C216   1.388       .  A
C208        C211   1.382       .  A
C209        C220   1.382       .  A
C209        C212   1.381       .  A
C210        C224   1.383       .  A
C210        C213   1.382       .  A
C211        C214   1.383       .  A
C212        C218   1.383       .  A
C213        C221   1.388       .  A
C214        N215   1.364       .  A
C214        H227   1.082       .  S
N215        C216   1.367       .  A
N215        C286   1.460       .  S
C216        H217   1.082       .  S
C218        N219   1.364       .  A
C218        H228   1.082       .  S
N219        C220   1.364       .  A
C220        H226   1.082       .  S
C221        N222   1.367       .  A
C221        H223   1.082       .  S
N222        C224   1.364       .  A
C224        H225   1.082       .  S
N229        C234   1.360       .  A
N229        C233   1.360       .  A
N229        H261   1.039       .  S
N230        C237   1.357   1_556  A
N230        C238   1.357       .  A
N231        C236   1.360       .  A
N231        C235   1.360       .  A
N231        H262   1.040       .  S
N232        C239   1.358   1_556  A
N232        C240   1.358       .  A
C233        C241   1.386       .  A
C233        C249   1.425       .  A
C234        C250   1.425       .  A
C234        C242   1.386       .  A
C235        C243   1.386       .  A
C235        C252   1.425       .  A
C236        C251   1.425       .  A
C236        C244   1.386       .  A
C237        C249   1.423       .  A
C237        C245   1.385       .  A
C238        C252   1.423       .  A
C238        C246   1.385       .  A
C239        C247   1.385       .  A
C239        C250   1.423       .  A
C240        C248   1.385       .  A
C240        C251   1.423       .  A
C241        C242   1.378       .  A
C241        H253   1.082       .  S
C242        H254   1.082       .  S
C243        C244   1.378       .  A
C243        H255   1.082       .  S
C244        H256   1.082       .  S
C245        C246   1.378   1_554  A
C245        H257   1.082       .  S
C246        H258   1.082       .  S
C247        C248   1.378   1_554  A
C247        H259   1.082       .  S
C248        H260   1.082       .  S
C249        N375   1.459       .  S
C251        N306   1.460       .  S
N263        C268   1.359       .  A
N263        C267   1.359       .  A
N263        H295   1.040       .  S
N264        C271   1.357   1_556  A
N264        C272   1.357       .  A
N265        C270   1.360       .  A
N265        C269   1.360       .  A
N265        H296   1.040       .  S
N266        C273   1.358   1_556  A
N266        C274   1.358       .  A
C267        C275   1.386       .  A
C267        C283   1.424       .  A
C268        C284   1.424       .  A
C268        C276   1.386       .  A
C269        C277   1.386       .  A
C269        C286   1.425       .  A
C270        C285   1.425       .  A
C270        C278   1.386       .  A
C271        C283   1.423       .  A
C271        C279   1.385       .  A
C272        C286   1.423       .  A
C272        C280   1.385       .  A
C273        C281   1.385       .  A
C273        C284   1.423       .  A
C274        C282   1.385       .  A
C274        C285   1.423       .  A
C275        C276   1.378       .  A
C275        H287   1.082       .  S
C276        H288   1.082       .  S
C277        C278   1.378       .  A
C277        H289   1.082       .  S
C278        H290   1.082       .  S
C279        C280   1.378   1_554  A
C279        H291   1.082       .  S
C280        H292   1.082       .  S
C281        C282   1.378   1_554  A
C281        H293   1.082       .  S
C282        H294   1.082       .  S
C283        N329   1.459       .  S
C285        N352   1.460       .  S
C297        C299   1.537       .  S
C297        C301   1.541       .  S
C297        C300   1.536       .  S
C297        C508   1.437       .  S
C298        C302   1.541       .  S
C298        C304   1.537       .  S
C298        C303   1.535       .  S
C298        C510   1.437       .  S
C299        C307   1.383       .  A
C299        C302   1.383       .  A
C300        C311   1.383       .  A
C300        C303   1.381       .  A
C301        C315   1.388       .  A
C301        C304   1.383       .  A
C302        C305   1.388       .  A
C303        C309   1.383       .  A
C304        C312   1.383       .  A
C305        N306   1.367       .  A
C305        H318   1.082       .  S
N306        C307   1.364       .  A
C307        H308   1.082       .  S
C309        N310   1.364       .  A
C309        H319   1.082       .  S
N310        C311   1.364       .  A
C311        H317   1.082       .  S
C312        N313   1.364       .  A
C312        H314   1.082       .  S
N313        C315   1.367       .  A
C315        H316   1.082       .  S
C320        C322   1.537       .  S
C320        C324   1.541       .  S
C320        C323   1.536       .  S
C320        C505   1.438       .  S
C321        C325   1.540       .  S
C321        C327   1.536       .  S
C321        C326   1.536       .  S
C321        C503   1.437       .  S
C322        C330   1.383       .  A
C322        C325   1.382       .  A
C323        C334   1.382       .  A
C323        C326   1.382       .  A
C324        C338   1.388       .  A
C324        C327   1.382       .  A
C325        C328   1.387       .  A
C326        C332   1.383       .  A
C327        C335   1.383       .  A
C328        N329   1.366       .  A
C328        H341   1.082       .  S
N329        C330   1.364       .  A
C330        H331   1.082       .  S
C332        N333   1.364       .  A
C332        H342   1.082       .  S
N333        C334   1.364       .  A
C334        H340   1.082       .  S
C335        N336   1.364       .  A
C335        H337   1.082       .  S
N336        C338   1.367       .  A
C338        H339   1.082       .  S
C343        C345   1.537       .  S
C343        C347   1.541       .  S
C343        C346   1.536       .  S
C343        C499   1.437       .  S
C344        C348   1.541       .  S
C344        C350   1.537       .  S
C344        C349   1.535       .  S
C344        C501   1.438       .  S
C345        C353   1.383       .  A
C345        C348   1.383       .  A
C346        C357   1.383       .  A
C346        C349   1.381       .  A
C347        C361   1.388       .  A
C347        C350   1.383       .  A
C348        C351   1.388       .  A
C349        C355   1.383       .  A
C350        C358   1.383       .  A
C351        N352   1.367       .  A
C351        H364   1.082       .  S
N352        C353   1.364       .  A
C353        H354   1.082       .  S
C355        N356   1.364       .  A
C355        H365   1.082       .  S
N356        C357   1.364       .  A
C357        H363   1.082       .  S
C358        N359   1.364       .  A
C358        H360   1.082       .  S
N359        C361   1.367       .  A
C361        H362   1.082       .  S
C366        C368   1.537       .  S
C366        C370   1.541       .  S
C366        C369   1.536       .  S
C366        C497   1.437       .  S
C367        C371   1.541       .  S
C367        C373   1.537       .  S
C367        C372   1.536       .  S
C367        C496   1.437       .  S
C368        C376   1.383       .  A
C368        C371   1.382       .  A
C369        C380   1.382       .  A
C369        C372   1.382       .  A
C370        C384   1.388       .  A
C370        C373   1.382       .  A
C371        C374   1.387       .  A
C372        C378   1.383       .  A
C373        C381   1.383       .  A
C374        N375   1.366       .  A
C374        H387   1.082       .  S
N375        C376   1.364       .  A
C376        H377   1.082       .  S
C378        N379   1.364       .  A
C378        H388   1.082       .  S
N379        C380   1.364       .  A
C380        H386   1.082       .  S
C381        N382   1.364       .  A
C381        H383   1.082       .  S
N382        C384   1.367       .  A
C384        H385   1.082       .  S
C389        N407   1.343       .  A
C389        C426   1.447       .  S
C389        C495   1.406       .  S
N390        N407   1.319       .  A
N390        N412   1.316       .  A
N390      Co1479   2.058   1_554  S
C391        N416   1.335       .  A
C391        H436   1.082       .  S
C391        C429   1.450       .  S
H392        C433   1.082       .  S
C393        N417   1.333       .  A
C393        H422   1.082       .  S
C393        C397   1.448       .  S
Co394       N402   2.055   1_556  S
Co394       N410   2.055       .  S
Co394       N938   2.054   1_546  S
Co394       N960   2.055   1_545  S
Co394     Cl1490   2.428   1_455  S
N395        C433   1.335       .  A
N395        N402   1.316       .  A
N395      Co1448   2.058   1_454  S
Co396       N399   2.059   1_556  S
Co396       N403   2.058       .  S
Co396      N1447   2.058   1_556  S
Co396      N1468   2.058       .  S
Co396      Cl438   2.437       .  S
C397        N435   1.343       .  A
C397        C504   1.406       .  S
N398        N405   1.316       .  A
N398        N428   1.318       .  A
N398       Co431   2.055   1_554  S
N399        N417   1.316       .  A
N399        N435   1.319       .  A
N400        C429   1.342       .  A
N400        N410   1.318       .  A
H401        C426   1.082       .  S
N402        N423   1.318       .  A
N403        N421   1.316       .  A
N403        N408   1.319       .  A
C404        N408   1.343       .  A
C404        C432   1.448       .  S
C404        C512   1.406       .  S
N405        C420   1.335       .  A
N405       Co427   2.059   1_554  S
C406        N434   1.333       .  A
C406        H440   1.082       .  S
C406        C409   1.448       .  S
C409        N430   1.343       .  A
C409        C516   1.407       .  S
N410        N416   1.316       .  A
N411        C437   1.334       .  A
N411        N413   1.316       .  A
N411       Co427   2.057       .  S
N412        C426   1.333       .  A
N412       Co920   2.054   1_554  S
N413        N441   1.318       .  A
N413       Co431   2.055       .  S
H414        C437   1.082       .  S
H415        C432   1.082       .  S
N416      Co1448   2.058   1_455  S
N417       Co957   2.054   1_544  S
N418        N430   1.319       .  A
N418        N434   1.316       .  A
N418      Co1479   2.058       .  S
C419        N423   1.342       .  A
C419        C433   1.450       .  S
C419        C526   1.407       .  S
C420        H424   1.082       .  S
C420        C439   1.450       .  S
N421        C432   1.333       .  A
N421       Co957   2.055   1_545  S
C425        N441   1.342       .  A
C425        C437   1.450       .  S
C425        C509   1.406       .  S
Co427      N1442   2.058   1_556  S
Co427      N1470   2.058       .  S
Co427      Cl964   2.437       .  S
N428        C439   1.342       .  A
C429        C502   1.407       .  S
Co431       N943   2.054   1_556  S
Co431       N947   2.055       .  S
Co431      Cl964   2.428       .  S
N434       Co920   2.055       .  S
Cl438     Co1446   2.428       .  S
Cl438      Co953   2.437   1_545  S
Cl438      Co957   2.428   1_545  S
C439        C521   1.407       .  S
C442        N460   1.342       .  A
C442        C479   1.450       .  S
C442        C524   1.407       .  S
N443        N460   1.318       .  A
N443        N465   1.316       .  A
N443       Co480   2.055       .  S
C444        N469   1.333       .  A
C444        H489   1.082       .  S
C444        C482   1.447       .  S
H445        C486   1.082       .  S
C446        N470   1.335       .  A
C446        H475   1.082       .  S
C446        C450   1.450       .  S
Co447       N465   2.059       .  S
Co447       N455   2.059       .  S
Co447       N487   2.058       .  S
Co447       N463   2.059       .  S
Co447      Cl491   2.437       .  S
N448        C486   1.333       .  A
N448        N455   1.316       .  A
N448       Co449   2.055       .  S
Co449       N452   2.056       .  S
Co449       N469   2.054       .  S
Co449       N456   2.054       .  S
Co449      Cl491   2.429       .  S
C450        N488   1.342       .  A
C450        C519   1.407       .  S
N451        N458   1.316       .  A
N451        N481   1.319       .  A
N451       Co484   2.060       .  S
N452        N470   1.316       .  A
N452        N488   1.318       .  A
N453        C482   1.344       .  A
N453        N463   1.319       .  A
H454        C479   1.082       .  S
N455        N476   1.319       .  A
N456        N474   1.316       .  A
N456        N461   1.318       .  A
C457        N461   1.341       .  A
C457        C485   1.450       .  S
C457        C507   1.406       .  S
N458        C473   1.333       .  A
N458       Co480   2.055       .  S
C459        N487   1.335       .  A
C459        H493   1.082       .  S
C459        C462   1.450       .  S
C462        N483   1.342       .  A
C462        C500   1.407       .  S
N463        N469   1.316       .  A
N464        C490   1.333       .  A
N464        N466   1.316       .  A
N464       Co480   2.053       .  S
N465        C479   1.335       .  A
N466        N494   1.319       .  A
N466       Co484   2.058       .  S
H467        C490   1.082       .  S
H468        C485   1.082       .  S
N470       Co484   2.058       .  S
N471        N483   1.318       .  A
N471        N487   1.316       .  A
N471       Co480   2.055       .  S
C472        N476   1.343       .  A
C472        C486   1.448       .  S
C472        C498   1.407       .  S
C473        H477   1.082       .  S
C473        C492   1.448       .  S
N474        C485   1.335       .  A
N474       Co484   2.059       .  S
C478        N494   1.343       .  A
C478        C490   1.447       .  S
C478        C514   1.406       .  S
Co480      Cl491   2.428       .  S
N481        C492   1.344       .  A
C482        C517   1.406       .  S
Co484      Cl491   2.437       .  S
C492        C506   1.407       .  S
C495        C496   1.188       .  T
C497        C498   1.189       .  T
C499        C500   1.189       .  T
C501        C502   1.189       .  T
C503        C504   1.188       .  T
C505        C506   1.189       .  T
C507        C508   1.188       .  T
C509        C510   1.188       .  T
C511        C512   1.188       .  T
C513        C514   1.188       .  T
C515        C516   1.189       .  T
C517        C518   1.188       .  T
C519        C520   1.189       .  T
C521        C522   1.189       .  T
C523        C524   1.189       .  T
C525        C526   1.189       .  T
C527        C529   1.541       .  S
C527        C531   1.537       .  S
C527        C530   1.536       .  S
C527       C1051   1.438       .  S
C528        C532   1.537       .  S
C528        C534   1.541       .  S
C528        C533   1.536       .  S
C528       C1049   1.438       .  S
C529        C537   1.387       .  A
C529        C532   1.383       .  A
C530        C541   1.383       .  A
C530        C533   1.381       .  A
C531        C545   1.383       .  A
C531        C534   1.383       .  A
C532        C535   1.383       .  A
C533        C539   1.383       .  A
C534        C542   1.388       .  A
C535        N536   1.365       .  A
C535        H548   1.082       .  S
N536        C537   1.366       .  A
N536        C810   1.460       .  S
C537        H538   1.082       .  S
C539        N540   1.364       .  A
C539        H549   1.082       .  S
N540        C541   1.364       .  A
N540        C571   1.456       .  S
C541        H547   1.082       .  S
C542        N543   1.367       .  A
C542        H544   1.082       .  S
N543        C545   1.364       .  A
N543        C627   1.460       .  S
C545        H546   1.082       .  S
N550        C555   1.357   1_655  A
N550       C1606   1.357       .  A
N550        H582   1.041       .  S
N551        C558   1.356       .  A
N551        C559   1.356       .  A
N552        C557   1.357   1_655  A
N552       C1608   1.357       .  A
N552        H583   1.041       .  S
N553        C560   1.356       .  A
N553        C561   1.356       .  A
C554        C562   1.386       .  A
C554        C570   1.422       .  A
C554       N1602   1.357       .  A
C555        C571   1.422       .  A
C555        C563   1.386       .  A
C556        C564   1.386       .  A
C556        C573   1.421       .  A
C556       N1604   1.357       .  A
C557        C572   1.421       .  A
C557        C565   1.386       .  A
C558        C570   1.420       .  A
C558        C566   1.385       .  A
C559        C573   1.420       .  A
C559        C567   1.385       .  A
C560        C568   1.385       .  A
C560        C571   1.420       .  A
C561        C569   1.385       .  A
C561        C572   1.420       .  A
C562       C1615   1.379       .  A
C562        H574   1.082       .  S
C563       C1614   1.380   1_455  A
C563        H575   1.082       .  S
C564       C1617   1.379       .  A
C564        H576   1.082       .  S
C565       C1616   1.379   1_455  A
C565        H577   1.082       .  S
C566        C567   1.376       .  A
C566        H578   1.082       .  S
C567        H579   1.082       .  S
C568        C569   1.376       .  A
C568        H580   1.082       .  S
C569        H581   1.082       .  S
C570        N859   1.456       .  S
C572        N905   1.456       .  S
C573        N597   1.456       .  S
C584        C586   1.541       .  S
C584        C588   1.537       .  S
C584        C587   1.536       .  S
C584       C1048   1.438       .  S
C585        C589   1.537       .  S
C585        C591   1.541       .  S
C585        C590   1.536       .  S
C585       C1046   1.438       .  S
C586        C594   1.388       .  A
C586        C589   1.383       .  A
C587        C598   1.383       .  A
C587        C590   1.381       .  A
C588        C602   1.383       .  A
C588        C591   1.383       .  A
C589        C592   1.383       .  A
C590        C596   1.383       .  A
C591        C599   1.388       .  A
C592        N593   1.365       .  A
C592        H605   1.082       .  S
N593        C594   1.367       .  A
N593        C776   1.460       .  S
C594        H595   1.082       .  S
C596        N597   1.364       .  A
C596        H606   1.082       .  S
N597        C598   1.364       .  A
C598        H604   1.082       .  S
C599        N600   1.367       .  A
C599        H601   1.082       .  S
N600        C602   1.364       .  A
N600        C661   1.460       .  S
C602        H603   1.082       .  S
N607        C611   1.359       .  A
N607        H639   1.041       .  S
N608        C615   1.357       .  A
N608        C616   1.357       .  A
N609        C613   1.359       .  A
N609        H640   1.041       .  S
N610        C617   1.357       .  A
N610        C618   1.357       .  A
C611        C619   1.386       .  A
C611        C627   1.425       .  A
C612        C628   1.425       .  A
C612        C620   1.386       .  A
C613        C621   1.386       .  A
C613        C630   1.424       .  A
C614        C629   1.424       .  A
C614        C622   1.386       .  A
C615        C627   1.423       .  A
C615        C623   1.385       .  A
C616        C630   1.423       .  A
C616        C624   1.385       .  A
C617        C625   1.385       .  A
C617        C628   1.423       .  A
C618        C626   1.385       .  A
C618        C629   1.423       .  A
C619        H631   1.082       .  S
C620        H632   1.082       .  S
C621        H633   1.082       .  S
C622        H634   1.082       .  S
C623        C624   1.378       .  A
C623        H635   1.082       .  S
C624        H636   1.082       .  S
C625        C626   1.378       .  A
C625        H637   1.082       .  S
C626        H638   1.082       .  S
C628        N908   1.460       .  S
C629        N684   1.459       .  S
C630        N885   1.459       .  S
N641        C646   1.359       .  A
N641        H673   1.041       .  S
N642        C649   1.357       .  A
N642        C650   1.357       .  A
N643        C648   1.359       .  A
N643        H674   1.041       .  S
N644        C651   1.357       .  A
N644        C652   1.357       .  A
C645        C653   1.386       .  A
C645        C661   1.425       .  A
C646        C662   1.425       .  A
C646        C654   1.386       .  A
C647        C655   1.386       .  A
C647        C664   1.425       .  A
C648        C663   1.425       .  A
C648        C656   1.386       .  A
C649        C661   1.423       .  A
C649        C657   1.385       .  A
C650        C664   1.423       .  A
C650        C658   1.385       .  A
C651        C659   1.385       .  A
C651        C662   1.423       .  A
C652        C660   1.385       .  A
C652        C663   1.423       .  A
C653        H665   1.082       .  S
C654        H666   1.082       .  S
C655        H667   1.082       .  S
C656        H668   1.082       .  S
C657        C658   1.378       .  A
C657        H669   1.082       .  S
C658        H670   1.082       .  S
C659        C660   1.378       .  A
C659        H671   1.082       .  S
C660        H672   1.082       .  S
C662        N862   1.460       .  S
C663        N748   1.459       .  S
C664        N839   1.460       .  S
C675        C677   1.541       .  S
C675        C679   1.537       .  S
C675        C678   1.536       .  S
C675       C1044   1.437       .  S
C676        C680   1.537       .  S
C676        C682   1.541       .  S
C676        C681   1.536       .  S
C676       C1041   1.438       .  S
C677        C685   1.388       .  A
C677        C680   1.382       .  A
C678        C689   1.383       .  A
C678        C681   1.381       .  A
C679        C693   1.383       .  A
C679        C682   1.382       .  A
C680        C683   1.383       .  A
C681        C687   1.382       .  A
C682        C690   1.388       .  A
C683        N684   1.364       .  A
C683        H696   1.082       .  S
N684        C685   1.367       .  A
C685        H686   1.082       .  S
C687        N688   1.364       .  A
C687        H697   1.082       .  S
N688        C689   1.364       .  A
N688        C718   1.456       .  S
C689        H695   1.082       .  S
C690        N691   1.367       .  A
C690        H692   1.082       .  S
N691        C693   1.364       .  A
N691        C778   1.460       .  S
C693        H694   1.082       .  S
N698        C703   1.358       .  A
N698        C702   1.358       .  A
N698        H730   1.039       .  S
N699       C1758   1.356       .  A
N699        C707   1.356       .  A
N700        C705   1.358       .  A
N700        C704   1.358       .  A
N700        H731   1.039       .  S
N701       C1760   1.356       .  A
N701        C709   1.356       .  A
C702        C710   1.386       .  A
C702        C718   1.422       .  A
C703        C719   1.422       .  A
C703        C711   1.386       .  A
C704        C712   1.386       .  A
C704        C721   1.422       .  A
C705        C720   1.422       .  A
C705        C713   1.386       .  A
C706        C718   1.420       .  A
C706        C714   1.385       .  A
C706       N1751   1.356   1_455  A
C707        C721   1.420       .  A
C707        C715   1.385       .  A
C708        C716   1.385       .  A
C708        C719   1.420       .  A
C708       N1753   1.356   1_455  A
C709        C717   1.385       .  A
C709        C720   1.420       .  A
C710        C711   1.379       .  A
C710        H722   1.082       .  S
C711        H723   1.082       .  S
C712        C713   1.379       .  A
C712        H724   1.082       .  S
C713        H725   1.082       .  S
C714       C1767   1.376   1_455  A
C714        H726   1.082       .  S
C715       C1766   1.376       .  A
C715        H727   1.082       .  S
C716       C1769   1.376   1_455  A
C716        H728   1.082       .  S
C717       C1768   1.376       .  A
C717        H729   1.082       .  S
C719        N882   1.456       .  S
C720        N745   1.456       .  S
C721        N836   1.456       .  S
C732        C734   1.541       .  S
C732        C736   1.537       .  S
C732        C735   1.536       .  S
C732       C1037   1.437       .  S
C733        C737   1.537       .  S
C733        C739   1.541       .  S
C733        C738   1.536       .  S
C733       C1039   1.436       .  S
C734        C742   1.388       .  A
C734        C737   1.382       .  A
C735        C746   1.382       .  A
C735        C738   1.381       .  A
C736        C750   1.383       .  A
C736        C739   1.382       .  A
C737        C740   1.383       .  A
C738        C744   1.383       .  A
C739        C747   1.388       .  A
C740        N741   1.364       .  A
C740        H753   1.082       .  S
N741        C742   1.367       .  A
N741        C812   1.460       .  S
C742        H743   1.082       .  S
C744        N745   1.364       .  A
C744        H754   1.082       .  S
N745        C746   1.364       .  A
C746        H752   1.082       .  S
C747        N748   1.367       .  A
C747        H749   1.082       .  S
N748        C750   1.364       .  A
C750        H751   1.082       .  S
N755        C760   1.360       .  A
N755        C759   1.360       .  A
N755        H787   1.039       .  S
N756        C763   1.357   1_556  A
N756        C764   1.357       .  A
N757        C762   1.360       .  A
N757        C761   1.360       .  A
N757        H788   1.040       .  S
N758        C765   1.358   1_556  A
N758        C766   1.358       .  A
C759        C767   1.386       .  A
C759        C775   1.425       .  A
C760        C776   1.425       .  A
C760        C768   1.386       .  A
C761        C769   1.386       .  A
C761        C778   1.425       .  A
C762        C777   1.425       .  A
C762        C770   1.386       .  A
C763        C775   1.423       .  A
C763        C771   1.385       .  A
C764        C778   1.423       .  A
C764        C772   1.385       .  A
C765        C773   1.385       .  A
C765        C776   1.423       .  A
C766        C774   1.385       .  A
C766        C777   1.423       .  A
C767        C768   1.378       .  A
C767        H779   1.082       .  S
C768        H780   1.082       .  S
C769        C770   1.378       .  A
C769        H781   1.082       .  S
C770        H782   1.082       .  S
C771        C772   1.378   1_554  A
C771        H783   1.082       .  S
C772        H784   1.082       .  S
C773        C774   1.378   1_554  A
C773        H785   1.082       .  S
C774        H786   1.082       .  S
C775        N901   1.459       .  S
C777        N832   1.460       .  S
N789        C794   1.359       .  A
N789        C793   1.359       .  A
N789        H821   1.040       .  S
N790        C797   1.357   1_556  A
N790        C798   1.357       .  A
N791        C796   1.360       .  A
N791        C795   1.360       .  A
N791        H822   1.040       .  S
N792        C799   1.358   1_556  A
N792        C800   1.358       .  A
C793        C801   1.386       .  A
C793        C809   1.424       .  A
C794        C810   1.424       .  A
C794        C802   1.386       .  A
C795        C803   1.386       .  A
C795        C812   1.425       .  A
C796        C811   1.425       .  A
C796        C804   1.386       .  A
C797        C809   1.423       .  A
C797        C805   1.385       .  A
C798        C812   1.423       .  A
C798        C806   1.385       .  A
C799        C807   1.385       .  A
C799        C810   1.423       .  A
C800        C808   1.385       .  A
C800        C811   1.423       .  A
C801        C802   1.378       .  A
C801        H813   1.082       .  S
C802        H814   1.082       .  S
C803        C804   1.378       .  A
C803        H815   1.082       .  S
C804        H816   1.082       .  S
C805        C806   1.378   1_554  A
C805        H817   1.082       .  S
C806        H818   1.082       .  S
C807        C808   1.378   1_554  A
C807        H819   1.082       .  S
C808        H820   1.082       .  S
C809        N855   1.459       .  S
C811        N878   1.460       .  S
C823        C825   1.537       .  S
C823        C827   1.541       .  S
C823        C826   1.536       .  S
C823       C1034   1.437       .  S
C824        C828   1.541       .  S
C824        C830   1.537       .  S
C824        C829   1.535       .  S
C824       C1036   1.437       .  S
C825        C833   1.383       .  A
C825        C828   1.383       .  A
C826        C837   1.383       .  A
C826        C829   1.381       .  A
C827        C841   1.388       .  A
C827        C830   1.383       .  A
C828        C831   1.388       .  A
C829        C835   1.383       .  A
C830        C838   1.383       .  A
C831        N832   1.367       .  A
C831        H844   1.082       .  S
N832        C833   1.364       .  A
C833        H834   1.082       .  S
C835        N836   1.364       .  A
C835        H845   1.082       .  S
N836        C837   1.364       .  A
C837        H843   1.082       .  S
C838        N839   1.364       .  A
C838        H840   1.082       .  S
N839        C841   1.367       .  A
C841        H842   1.082       .  S
C846        C848   1.537       .  S
C846        C850   1.541       .  S
C846        C849   1.536       .  S
C846       C1031   1.438       .  S
C847        C851   1.540       .  S
C847        C853   1.536       .  S
C847        C852   1.536       .  S
C847       C1029   1.437       .  S
C848        C856   1.383       .  A
C848        C851   1.382       .  A
C849        C860   1.382       .  A
C849        C852   1.382       .  A
C850        C864   1.388       .  A
C850        C853   1.382       .  A
C851        C854   1.387       .  A
C852        C858   1.383       .  A
C853        C861   1.383       .  A
C854        N855   1.366       .  A
C854        H867   1.082       .  S
N855        C856   1.364       .  A
C856        H857   1.082       .  S
C858        N859   1.364       .  A
C858        H868   1.082       .  S
N859        C860   1.364       .  A
C860        H866   1.082       .  S
C861        N862   1.364       .  A
C861        H863   1.082       .  S
N862        C864   1.367       .  A
C864        H865   1.082       .  S
C869        C871   1.537       .  S
C869        C873   1.541       .  S
C869        C872   1.536       .  S
C869       C1025   1.437       .  S
C870        C874   1.541       .  S
C870        C876   1.537       .  S
C870        C875   1.535       .  S
C870       C1027   1.438       .  S
C871        C879   1.383       .  A
C871        C874   1.383       .  A
C872        C883   1.383       .  A
C872        C875   1.381       .  A
C873        C887   1.388       .  A
C873        C876   1.383       .  A
C874        C877   1.388       .  A
C875        C881   1.383       .  A
C876        C884   1.383       .  A
C877        N878   1.367       .  A
C877        H890   1.082       .  S
N878        C879   1.364       .  A
C879        H880   1.082       .  S
C881        N882   1.364       .  A
C881        H891   1.082       .  S
N882        C883   1.364       .  A
C883        H889   1.082       .  S
C884        N885   1.364       .  A
C884        H886   1.082       .  S
N885        C887   1.367       .  A
C887        H888   1.082       .  S
C892        C894   1.537       .  S
C892        C896   1.541       .  S
C892        C895   1.536       .  S
C892       C1023   1.437       .  S
C893        C897   1.541       .  S
C893        C899   1.537       .  S
C893        C898   1.536       .  S
C893       C1022   1.437       .  S
C894        C902   1.383       .  A
C894        C897   1.382       .  A
C895        C906   1.382       .  A
C895        C898   1.382       .  A
C896        C910   1.388       .  A
C896        C899   1.382       .  A
C897        C900   1.387       .  A
C898        C904   1.383       .  A
C899        C907   1.383       .  A
C900        N901   1.366       .  A
C900        H913   1.082       .  S
N901        C902   1.364       .  A
C902        H903   1.082       .  S
C904        N905   1.364       .  A
C904        H914   1.082       .  S
N905        C906   1.364       .  A
C906        H912   1.082       .  S
C907        N908   1.364       .  A
C907        H909   1.082       .  S
N908        C910   1.367       .  A
C910        H911   1.082       .  S
C915        N933   1.343       .  A
C915        C952   1.447       .  S
C915       C1021   1.406       .  S
N916        N933   1.319       .  A
N916        N938   1.316       .  A
N916      Co2005   2.058   1_554  S
C917        N942   1.335       .  A
C917        H962   1.082       .  S
C917        C955   1.450       .  S
H918        C959   1.082       .  S
C919        N943   1.333       .  A
C919        H948   1.082       .  S
C919        C923   1.448       .  S
Co920       N928   2.055   1_556  S
Co920       N936   2.055       .  S
Co920     Cl2016   2.428   1_455  S
N921        C959   1.335       .  A
N921        N928   1.316       .  A
N921      Co1974   2.058   1_454  S
Co922      N1973   2.058   1_556  S
Co922       N925   2.059   1_556  S
Co922      N1994   2.058       .  S
Co922       N929   2.058       .  S
Co922      Cl964   2.437       .  S
C923        N961   1.343       .  A
C923       C1030   1.406       .  S
N924        N931   1.316       .  A
N924        N954   1.318       .  A
N924       Co957   2.055   1_554  S
N925        N943   1.316       .  A
N925        N961   1.319       .  A
N926        C955   1.342       .  A
N926        N936   1.318       .  A
H927        C952   1.082       .  S
N928        N949   1.318       .  A
N929        N947   1.316       .  A
N929        N934   1.319       .  A
C930        N934   1.343       .  A
C930        C958   1.448       .  S
C930       C1038   1.406       .  S
N931        C946   1.335       .  A
N931       Co953   2.059   1_554  S
C932        N960   1.333       .  A
C932        H966   1.082       .  S
C932        C935   1.448       .  S
C935        N956   1.343       .  A
C935       C1042   1.407       .  S
N936        N942   1.316       .  A
N937        C963   1.334       .  A
N937        N939   1.316       .  A
N937       Co953   2.057       .  S
N938        C952   1.333       .  A
N939        N967   1.318       .  A
N939       Co957   2.055       .  S
H940        C963   1.082       .  S
H941        C958   1.082       .  S
N942      Co1974   2.058   1_455  S
N944        N956   1.319       .  A
N944        N960   1.316       .  A
N944      Co2005   2.058       .  S
C945        N949   1.342       .  A
C945        C959   1.450       .  S
C945       C1052   1.407       .  S
C946        H950   1.082       .  S
C946        C965   1.450       .  S
N947        C958   1.333       .  A
C951        N967   1.342       .  A
C951        C963   1.450       .  S
C951       C1035   1.406       .  S
Co953      N1968   2.058   1_556  S
Co953      N1996   2.058       .  S
N954        C965   1.342       .  A
C955       C1028   1.407       .  S
Cl964     Co1972   2.428       .  S
C965       C1047   1.407       .  S
C968        N986   1.342       .  A
C968       C1005   1.450       .  S
C968       C1050   1.407       .  S
N969        N986   1.318       .  A
N969        N991   1.316       .  A
N969      Co1006   2.055       .  S
C970        N995   1.333       .  A
C970       H1015   1.082       .  S
C970       C1008   1.447       .  S
H971       C1012   1.082       .  S
C972        N996   1.335       .  A
C972       H1001   1.082       .  S
C972        C976   1.450       .  S
Co973       N991   2.059       .  S
Co973       N981   2.059       .  S
Co973      N1013   2.058       .  S
Co973       N989   2.059       .  S
Co973     Cl1017   2.437       .  S
N974       C1012   1.333       .  A
N974        N981   1.316       .  A
N974       Co975   2.055       .  S
Co975       N978   2.056       .  S
Co975       N995   2.054       .  S
Co975       N982   2.054       .  S
Co975     Cl1017   2.429       .  S
C976       N1014   1.342       .  A
C976       C1045   1.407       .  S
N977        N984   1.316       .  A
N977       N1007   1.319       .  A
N977      Co1010   2.060       .  S
N978        N996   1.316       .  A
N978       N1014   1.318       .  A
N979       C1008   1.344       .  A
N979        N989   1.319       .  A
H980       C1005   1.082       .  S
N981       N1002   1.319       .  A
N982       N1000   1.316       .  A
N982        N987   1.318       .  A
C983        N987   1.341       .  A
C983       C1011   1.450       .  S
C983       C1033   1.406       .  S
N984        C999   1.333       .  A
N984      Co1006   2.055       .  S
C985       N1013   1.335       .  A
C985       H1019   1.082       .  S
C985        C988   1.450       .  S
C988       N1009   1.342       .  A
C988       C1026   1.407       .  S
N989        N995   1.316       .  A
N990       C1016   1.333       .  A
N990        N992   1.316       .  A
N990      Co1006   2.053       .  S
N991       C1005   1.335       .  A
N992       N1020   1.319       .  A
N992      Co1010   2.058       .  S
H993       C1016   1.082       .  S
H994       C1011   1.082       .  S
N996      Co1010   2.058       .  S
N997       N1009   1.318       .  A
N997       N1013   1.316       .  A
N997      Co1006   2.055       .  S
C998       N1002   1.343       .  A
C998       C1012   1.448       .  S
C998       C1024   1.407       .  S
C999       H1003   1.082       .  S
C999       C1018   1.448       .  S
N1000      C1011   1.335       .  A
N1000     Co1010   2.059       .  S
C1004      N1020   1.343       .  A
C1004      C1016   1.447       .  S
C1004      C1040   1.406       .  S
Co1006    Cl1017   2.428       .  S
N1007      C1018   1.344       .  A
C1008      C1043   1.406       .  S
Co1010    Cl1017   2.437       .  S
C1018      C1032   1.407       .  S
C1021      C1022   1.188       .  T
C1023      C1024   1.189       .  T
C1025      C1026   1.189       .  T
C1027      C1028   1.189       .  T
C1029      C1030   1.188       .  T
C1031      C1032   1.189       .  T
C1033      C1034   1.188       .  T
C1035      C1036   1.188       .  T
C1037      C1038   1.188       .  T
C1039      C1040   1.188       .  T
C1041      C1042   1.189       .  T
C1043      C1044   1.188       .  T
C1045      C1046   1.189       .  T
C1047      C1048   1.189       .  T
C1049      C1050   1.189       .  T
C1051      C1052   1.189       .  T
C1053      C1055   1.541       .  S
C1053      C1057   1.537       .  S
C1053      C1056   1.536       .  S
C1053      C1577   1.438       .  S
C1054      C1058   1.537       .  S
C1054      C1060   1.541       .  S
C1054      C1059   1.536       .  S
C1054      C1575   1.438       .  S
C1055      C1063   1.387       .  A
C1055      C1058   1.383       .  A
C1056      C1067   1.383       .  A
C1056      C1059   1.381       .  A
C1057      C1071   1.383       .  A
C1057      C1060   1.383       .  A
C1058      C1061   1.383       .  A
C1059      C1065   1.383       .  A
C1060      C1068   1.388       .  A
C1061      N1062   1.365       .  A
C1061      H1074   1.082       .  S
N1062      C1063   1.366       .  A
N1062      C1336   1.460       .  S
C1063      H1064   1.082       .  S
C1065      N1066   1.364       .  A
C1065      H1075   1.082       .  S
N1066      C1067   1.364       .  A
N1066      C1097   1.456       .  S
C1067      H1073   1.082       .  S
C1068      N1069   1.367       .  A
C1068      H1070   1.082       .  S
N1069      C1071   1.364       .  A
N1069      C1153   1.460       .  S
C1071      H1072   1.082       .  S
N1076      C1081   1.357       .  A
N1076      H1108   1.041       .  S
N1077      C1084   1.356       .  A
N1077      C1085   1.356       .  A
N1078      C1083   1.357       .  A
N1078      H1109   1.041       .  S
N1079      C1086   1.356       .  A
N1079      C1087   1.356       .  A
C1080      C1088   1.386       .  A
C1080      C1096   1.422       .  A
C1081      C1097   1.422       .  A
C1081      C1089   1.386       .  A
C1082      C1090   1.386       .  A
C1082      C1099   1.421       .  A
C1083      C1098   1.421       .  A
C1083      C1091   1.386       .  A
C1084      C1096   1.420       .  A
C1084      C1092   1.385       .  A
C1085      C1099   1.420       .  A
C1085      C1093   1.385       .  A
C1086      C1094   1.385       .  A
C1086      C1097   1.420       .  A
C1087      C1095   1.385       .  A
C1087      C1098   1.420       .  A
C1088      H1100   1.082       .  S
C1089      H1101   1.082       .  S
C1090      H1102   1.082       .  S
C1091      H1103   1.082       .  S
C1092      C1093   1.376       .  A
C1092      H1104   1.082       .  S
C1093      H1105   1.082       .  S
C1094      C1095   1.376       .  A
C1094      H1106   1.082       .  S
C1095      H1107   1.082       .  S
C1096      N1385   1.456       .  S
C1098      N1431   1.456       .  S
C1099      N1123   1.456       .  S
C1110      C1112   1.541       .  S
C1110      C1114   1.537       .  S
C1110      C1113   1.536       .  S
C1110      C1574   1.438       .  S
C1111      C1115   1.537       .  S
C1111      C1117   1.541       .  S
C1111      C1116   1.536       .  S
C1111      C1572   1.438       .  S
C1112      C1120   1.388       .  A
C1112      C1115   1.383       .  A
C1113      C1124   1.383       .  A
C1113      C1116   1.381       .  A
C1114      C1128   1.383       .  A
C1114      C1117   1.383       .  A
C1115      C1118   1.383       .  A
C1116      C1122   1.383       .  A
C1117      C1125   1.388       .  A
C1118      N1119   1.365       .  A
C1118      H1131   1.082       .  S
N1119      C1120   1.367       .  A
N1119      C1302   1.460       .  S
C1120      H1121   1.082       .  S
C1122      N1123   1.364       .  A
C1122      H1132   1.082       .  S
N1123      C1124   1.364       .  A
C1124      H1130   1.082       .  S
C1125      N1126   1.367       .  A
C1125      H1127   1.082       .  S
N1126      C1128   1.364       .  A
N1126      C1187   1.460       .  S
C1128      H1129   1.082       .  S
N1133      C1664   1.360   1_545  A
N1133      C1137   1.359       .  A
N1133      H1165   1.041       .  S
N1134      C1141   1.357       .  A
N1134      C1142   1.357       .  A
N1135      C1666   1.359   1_545  A
N1135      C1139   1.359       .  A
N1135      H1166   1.041       .  S
N1136      C1143   1.357       .  A
N1136      C1144   1.357       .  A
C1137      C1145   1.386       .  A
C1137      C1153   1.425       .  A
C1138      C1154   1.425       .  A
C1138      C1146   1.386       .  A
C1138      N1659   1.360       .  A
C1139      C1147   1.386       .  A
C1139      C1156   1.424       .  A
C1140      C1155   1.424       .  A
C1140      C1148   1.386       .  A
C1140      N1661   1.359       .  A
C1141      C1153   1.423       .  A
C1141      C1149   1.385       .  A
C1142      C1156   1.423       .  A
C1142      C1150   1.385       .  A
C1143      C1151   1.385       .  A
C1143      C1154   1.423       .  A
C1144      C1152   1.385       .  A
C1144      C1155   1.423       .  A
C1145      C1672   1.378   1_545  A
C1145      H1157   1.082       .  S
C1146      C1671   1.378       .  A
C1146      H1158   1.082       .  S
C1147      C1674   1.378   1_545  A
C1147      H1159   1.082       .  S
C1148      C1673   1.378       .  A
C1148      H1160   1.082       .  S
C1149      C1150   1.378       .  A
C1149      H1161   1.082       .  S
C1150      H1162   1.082       .  S
C1151      C1152   1.378       .  A
C1151      H1163   1.082       .  S
C1152      H1164   1.082       .  S
C1154      N1434   1.460       .  S
C1155      N1210   1.459       .  S
C1156      N1411   1.459       .  S
N1167      C1172   1.359       .  A
N1167      C1697   1.359   1_545  A
N1167      H1199   1.041       .  S
N1168      C1175   1.357       .  A
N1168      C1176   1.357       .  A
N1169      C1174   1.359       .  A
N1169      C1699   1.359   1_545  A
N1169      H1200   1.041       .  S
N1170      C1177   1.357       .  A
N1170      C1178   1.357       .  A
C1171      C1179   1.386       .  A
C1171      C1187   1.425       .  A
C1171      N1693   1.359       .  A
C1172      C1188   1.425       .  A
C1172      C1180   1.386       .  A
C1173      C1181   1.386       .  A
C1173      C1190   1.425       .  A
C1173      N1695   1.359       .  A
C1174      C1189   1.425       .  A
C1174      C1182   1.386       .  A
C1175      C1187   1.423       .  A
C1175      C1183   1.385       .  A
C1176      C1190   1.423       .  A
C1176      C1184   1.385       .  A
C1177      C1185   1.385       .  A
C1177      C1188   1.423       .  A
C1178      C1186   1.385       .  A
C1178      C1189   1.423       .  A
C1179      C1706   1.378       .  A
C1179      H1191   1.082       .  S
C1180      C1705   1.378   1_545  A
C1180      H1192   1.082       .  S
C1181      C1708   1.378       .  A
C1181      H1193   1.082       .  S
C1182      C1707   1.378   1_545  A
C1182      H1194   1.082       .  S
C1183      C1184   1.378       .  A
C1183      H1195   1.082       .  S
C1184      H1196   1.082       .  S
C1185      C1186   1.378       .  A
C1185      H1197   1.082       .  S
C1186      H1198   1.082       .  S
C1188      N1388   1.460       .  S
C1189      N1274   1.459       .  S
C1190      N1365   1.460       .  S
C1201      C1203   1.541       .  S
C1201      C1205   1.537       .  S
C1201      C1204   1.536       .  S
C1201      C1570   1.437       .  S
C1202      C1206   1.537       .  S
C1202      C1208   1.541       .  S
C1202      C1207   1.536       .  S
C1202      C1567   1.438       .  S
C1203      C1211   1.388       .  A
C1203      C1206   1.382       .  A
C1204      C1215   1.383       .  A
C1204      C1207   1.381       .  A
C1205      C1219   1.383       .  A
C1205      C1208   1.382       .  A
C1206      C1209   1.383       .  A
C1207      C1213   1.382       .  A
C1208      C1216   1.388       .  A
C1209      N1210   1.364       .  A
C1209      H1222   1.082       .  S
N1210      C1211   1.367       .  A
C1211      H1212   1.082       .  S
C1213      N1214   1.364       .  A
C1213      H1223   1.082       .  S
N1214      C1215   1.364       .  A
N1214      C1244   1.456       .  S
C1215      H1221   1.082       .  S
C1216      N1217   1.367       .  A
C1216      H1218   1.082       .  S
N1217      C1219   1.364       .  A
N1217      C1304   1.460       .  S
C1219      H1220   1.082       .  S
N1224      C1229   1.358       .  A
N1224      C1228   1.358       .  A
N1224      H1256   1.039       .  S
N1225      C1233   1.356       .  A
N1226      C1231   1.358       .  A
N1226      C1230   1.358       .  A
N1226      H1257   1.039       .  S
N1227      C1235   1.356       .  A
C1228      C1236   1.386       .  A
C1228      C1244   1.422       .  A
C1229      C1245   1.422       .  A
C1229      C1237   1.386       .  A
C1230      C1238   1.386       .  A
C1230      C1247   1.422       .  A
C1231      C1246   1.422       .  A
C1231      C1239   1.386       .  A
C1232      C1244   1.420       .  A
C1232      C1240   1.385       .  A
C1233      C1247   1.420       .  A
C1233      C1241   1.385       .  A
C1234      C1242   1.385       .  A
C1234      C1245   1.420       .  A
C1235      C1243   1.385       .  A
C1235      C1246   1.420       .  A
C1236      C1237   1.379       .  A
C1236      H1248   1.082       .  S
C1237      H1249   1.082       .  S
C1238      C1239   1.379       .  A
C1238      H1250   1.082       .  S
C1239      H1251   1.082       .  S
C1240      H1252   1.082       .  S
C1241      H1253   1.082       .  S
C1242      H1254   1.082       .  S
C1243      H1255   1.082       .  S
C1245      N1408   1.456       .  S
C1246      N1271   1.456       .  S
C1247      N1362   1.456       .  S
C1258      C1260   1.541       .  S
C1258      C1262   1.537       .  S
C1258      C1261   1.536       .  S
C1258      C1563   1.437       .  S
C1259      C1263   1.537       .  S
C1259      C1265   1.541       .  S
C1259      C1264   1.536       .  S
C1259      C1565   1.436       .  S
C1260      C1268   1.388       .  A
C1260      C1263   1.382       .  A
C1261      C1272   1.382       .  A
C1261      C1264   1.381       .  A
C1262      C1276   1.383       .  A
C1262      C1265   1.382       .  A
C1263      C1266   1.383       .  A
C1264      C1270   1.383       .  A
C1265      C1273   1.388       .  A
C1266      N1267   1.364       .  A
C1266      H1279   1.082       .  S
N1267      C1268   1.367       .  A
N1267      C1338   1.460       .  S
C1268      H1269   1.082       .  S
C1270      N1271   1.364       .  A
C1270      H1280   1.082       .  S
N1271      C1272   1.364       .  A
C1272      H1278   1.082       .  S
C1273      N1274   1.367       .  A
C1273      H1275   1.082       .  S
N1274      C1276   1.364       .  A
C1276      H1277   1.082       .  S
N1281      C1286   1.360       .  A
N1281      C1285   1.360       .  A
N1281      H1313   1.039       .  S
N1282      C1289   1.357   1_556  A
N1282      C1290   1.357       .  A
N1283      C1288   1.360       .  A
N1283      C1287   1.360       .  A
N1283      H1314   1.040       .  S
N1284      C1291   1.358   1_556  A
N1284      C1292   1.358       .  A
C1285      C1293   1.386       .  A
C1285      C1301   1.425       .  A
C1286      C1302   1.425       .  A
C1286      C1294   1.386       .  A
C1287      C1295   1.386       .  A
C1287      C1304   1.425       .  A
C1288      C1303   1.425       .  A
C1288      C1296   1.386       .  A
C1289      C1301   1.423       .  A
C1289      C1297   1.385       .  A
C1290      C1304   1.423       .  A
C1290      C1298   1.385       .  A
C1291      C1299   1.385       .  A
C1291      C1302   1.423       .  A
C1292      C1300   1.385       .  A
C1292      C1303   1.423       .  A
C1293      C1294   1.378       .  A
C1293      H1305   1.082       .  S
C1294      H1306   1.082       .  S
C1295      C1296   1.378       .  A
C1295      H1307   1.082       .  S
C1296      H1308   1.082       .  S
C1297      C1298   1.378   1_554  A
C1297      H1309   1.082       .  S
C1298      H1310   1.082       .  S
C1299      C1300   1.378   1_554  A
C1299      H1311   1.082       .  S
C1300      H1312   1.082       .  S
C1301      N1427   1.459       .  S
C1303      N1358   1.460       .  S
N1315      C1320   1.359       .  A
N1315      C1319   1.359       .  A
N1315      H1347   1.040       .  S
N1316      C1323   1.357   1_556  A
N1316      C1324   1.357       .  A
N1317      C1322   1.360       .  A
N1317      C1321   1.360       .  A
N1317      H1348   1.040       .  S
N1318      C1325   1.358   1_556  A
N1318      C1326   1.358       .  A
C1319      C1327   1.386       .  A
C1319      C1335   1.424       .  A
C1320      C1336   1.424       .  A
C1320      C1328   1.386       .  A
C1321      C1329   1.386       .  A
C1321      C1338   1.425       .  A
C1322      C1337   1.425       .  A
C1322      C1330   1.386       .  A
C1323      C1335   1.423       .  A
C1323      C1331   1.385       .  A
C1324      C1338   1.423       .  A
C1324      C1332   1.385       .  A
C1325      C1333   1.385       .  A
C1325      C1336   1.423       .  A
C1326      C1334   1.385       .  A
C1326      C1337   1.423       .  A
C1327      C1328   1.378       .  A
C1327      H1339   1.082       .  S
C1328      H1340   1.082       .  S
C1329      C1330   1.378       .  A
C1329      H1341   1.082       .  S
C1330      H1342   1.082       .  S
C1331      C1332   1.378   1_554  A
C1331      H1343   1.082       .  S
C1332      H1344   1.082       .  S
C1333      C1334   1.378   1_554  A
C1333      H1345   1.082       .  S
C1334      H1346   1.082       .  S
C1335      N1381   1.459       .  S
C1337      N1404   1.460       .  S
C1349      C1351   1.537       .  S
C1349      C1353   1.541       .  S
C1349      C1352   1.536       .  S
C1349      C1560   1.437       .  S
C1350      C1354   1.541       .  S
C1350      C1356   1.537       .  S
C1350      C1355   1.535       .  S
C1350      C1562   1.437       .  S
C1351      C1359   1.383       .  A
C1351      C1354   1.383       .  A
C1352      C1363   1.383       .  A
C1352      C1355   1.381       .  A
C1353      C1367   1.388       .  A
C1353      C1356   1.383       .  A
C1354      C1357   1.388       .  A
C1355      C1361   1.383       .  A
C1356      C1364   1.383       .  A
C1357      N1358   1.367       .  A
C1357      H1370   1.082       .  S
N1358      C1359   1.364       .  A
C1359      H1360   1.082       .  S
C1361      N1362   1.364       .  A
C1361      H1371   1.082       .  S
N1362      C1363   1.364       .  A
C1363      H1369   1.082       .  S
C1364      N1365   1.364       .  A
C1364      H1366   1.082       .  S
N1365      C1367   1.367       .  A
C1367      H1368   1.082       .  S
C1372      C1374   1.537       .  S
C1372      C1376   1.541       .  S
C1372      C1375   1.536       .  S
C1372      C1557   1.438       .  S
C1373      C1377   1.540       .  S
C1373      C1379   1.536       .  S
C1373      C1378   1.536       .  S
C1373      C1555   1.437       .  S
C1374      C1382   1.383       .  A
C1374      C1377   1.382       .  A
C1375      C1386   1.382       .  A
C1375      C1378   1.382       .  A
C1376      C1390   1.388       .  A
C1376      C1379   1.382       .  A
C1377      C1380   1.387       .  A
C1378      C1384   1.383       .  A
C1379      C1387   1.383       .  A
C1380      N1381   1.366       .  A
C1380      H1393   1.082       .  S
N1381      C1382   1.364       .  A
C1382      H1383   1.082       .  S
C1384      N1385   1.364       .  A
C1384      H1394   1.082       .  S
N1385      C1386   1.364       .  A
C1386      H1392   1.082       .  S
C1387      N1388   1.364       .  A
C1387      H1389   1.082       .  S
N1388      C1390   1.367       .  A
C1390      H1391   1.082       .  S
C1395      C1397   1.537       .  S
C1395      C1399   1.541       .  S
C1395      C1398   1.536       .  S
C1395      C1551   1.437       .  S
C1396      C1400   1.541       .  S
C1396      C1402   1.537       .  S
C1396      C1401   1.535       .  S
C1396      C1553   1.438       .  S
C1397      C1405   1.383       .  A
C1397      C1400   1.383       .  A
C1398      C1409   1.383       .  A
C1398      C1401   1.381       .  A
C1399      C1413   1.388       .  A
C1399      C1402   1.383       .  A
C1400      C1403   1.388       .  A
C1401      C1407   1.383       .  A
C1402      C1410   1.383       .  A
C1403      N1404   1.367       .  A
C1403      H1416   1.082       .  S
N1404      C1405   1.364       .  A
C1405      H1406   1.082       .  S
C1407      N1408   1.364       .  A
C1407      H1417   1.082       .  S
N1408      C1409   1.364       .  A
C1409      H1415   1.082       .  S
C1410      N1411   1.364       .  A
C1410      H1412   1.082       .  S
N1411      C1413   1.367       .  A
C1413      H1414   1.082       .  S
C1418      C1420   1.537       .  S
C1418      C1422   1.541       .  S
C1418      C1421   1.536       .  S
C1418      C1549   1.437       .  S
C1419      C1423   1.541       .  S
C1419      C1425   1.537       .  S
C1419      C1424   1.536       .  S
C1419      C1548   1.437       .  S
C1420      C1428   1.383       .  A
C1420      C1423   1.382       .  A
C1421      C1432   1.382       .  A
C1421      C1424   1.382       .  A
C1422      C1436   1.388       .  A
C1422      C1425   1.382       .  A
C1423      C1426   1.387       .  A
C1424      C1430   1.383       .  A
C1425      C1433   1.383       .  A
C1426      N1427   1.366       .  A
C1426      H1439   1.082       .  S
N1427      C1428   1.364       .  A
C1428      H1429   1.082       .  S
C1430      N1431   1.364       .  A
C1430      H1440   1.082       .  S
N1431      C1432   1.364       .  A
C1432      H1438   1.082       .  S
C1433      N1434   1.364       .  A
C1433      H1435   1.082       .  S
N1434      C1436   1.367       .  A
C1436      H1437   1.082       .  S
C1441      N1459   1.343       .  A
C1441      C1478   1.447       .  S
C1441      C1547   1.406       .  S
N1442      N1459   1.319       .  A
N1442      N1464   1.316       .  A
C1443      N1468   1.335       .  A
C1443      H1488   1.082       .  S
C1443      C1481   1.450       .  S
H1444      C1485   1.082       .  S
C1445      N1469   1.333       .  A
C1445      H1474   1.082       .  S
C1445      C1449   1.448       .  S
Co1446     N1990   2.054   1_546  S
Co1446     N1454   2.055   1_556  S
Co1446     N2012   2.055   1_545  S
Co1446     N1462   2.055       .  S
N1447      C1485   1.335       .  A
N1447      N1454   1.316       .  A
Co1448     N1451   2.059   1_556  S
Co1448     N1455   2.058       .  S
Co1448    Cl1490   2.437       .  S
C1449      N1487   1.343       .  A
C1449      C1556   1.406       .  S
N1450      N1457   1.316       .  A
N1450      N1480   1.318       .  A
N1450     Co1483   2.055   1_554  S
N1451      N1469   1.316       .  A
N1451      N1487   1.319       .  A
N1452      C1481   1.342       .  A
N1452      N1462   1.318       .  A
H1453      C1478   1.082       .  S
N1454      N1475   1.318       .  A
N1455      N1473   1.316       .  A
N1455      N1460   1.319       .  A
C1456      N1460   1.343       .  A
C1456      C1484   1.448       .  S
C1456      C1564   1.406       .  S
N1457      C1472   1.335       .  A
N1457     Co1479   2.059   1_654  S
C1458      N1486   1.333       .  A
C1458      H1492   1.082       .  S
C1458      C1461   1.448       .  S
C1461      N1482   1.343       .  A
C1461      C1568   1.407       .  S
N1462      N1468   1.316       .  A
N1463      C1489   1.334       .  A
N1463      N1465   1.316       .  A
N1463     Co1479   2.057   1_655  S
N1464      C1478   1.333       .  A
N1464     Co1972   2.054   1_554  S
N1465      N1493   1.318       .  A
N1465     Co1483   2.055       .  S
H1466      C1489   1.082       .  S
H1467      C1484   1.082       .  S
N1469     Co2009   2.054   1_544  S
N1470      N1482   1.319       .  A
N1470      N1486   1.316       .  A
C1471      N1475   1.342       .  A
C1471      C1485   1.450       .  S
C1471      C1578   1.407       .  S
C1472      H1476   1.082       .  S
C1472      C1491   1.450       .  S
N1473      C1484   1.333       .  A
N1473     Co2009   2.055   1_545  S
C1477      N1493   1.342       .  A
C1477      C1489   1.450       .  S
C1477      C1561   1.406       .  S
Co1479    Cl2016   2.437   1_455  S
N1480      C1491   1.342       .  A
C1481      C1554   1.407       .  S
Co1483     N1995   2.054   1_556  S
Co1483     N1999   2.055       .  S
Co1483    Cl2016   2.428       .  S
N1486     Co1972   2.055       .  S
Cl1490    Co2005   2.437   1_645  S
Cl1490    Co2009   2.428   1_545  S
C1491      C1573   1.407       .  S
C1494      N1512   1.342       .  A
C1494      C1531   1.450       .  S
C1494      C1576   1.407       .  S
N1495      N1512   1.318       .  A
N1495      N1517   1.316       .  A
N1495     Co1532   2.055       .  S
C1496      N1521   1.333       .  A
C1496      H1541   1.082       .  S
C1496      C1534   1.447       .  S
H1497      C1538   1.082       .  S
C1498      N1522   1.335       .  A
C1498      H1527   1.082       .  S
C1498      C1502   1.450       .  S
Co1499     N1517   2.059       .  S
Co1499     N1507   2.059       .  S
Co1499     N1539   2.058       .  S
Co1499     N1515   2.059       .  S
Co1499    Cl1543   2.437       .  S
N1500      C1538   1.333       .  A
N1500      N1507   1.316       .  A
N1500     Co1501   2.055       .  S
Co1501     N1504   2.056       .  S
Co1501     N1521   2.054       .  S
Co1501     N1508   2.054       .  S
Co1501    Cl1543   2.429       .  S
C1502      N1540   1.342       .  A
C1502      C1571   1.407       .  S
N1503      N1510   1.316       .  A
N1503      N1533   1.319       .  A
N1503     Co1536   2.060       .  S
N1504      N1522   1.316       .  A
N1504      N1540   1.318       .  A
N1505      C1534   1.344       .  A
N1505      N1515   1.319       .  A
H1506      C1531   1.082       .  S
N1507      N1528   1.319       .  A
N1508      N1526   1.316       .  A
N1508      N1513   1.318       .  A
C1509      N1513   1.341       .  A
C1509      C1537   1.450       .  S
C1509      C1559   1.406       .  S
N1510      C1525   1.333       .  A
N1510     Co1532   2.055       .  S
C1511      N1539   1.335       .  A
C1511      H1545   1.082       .  S
C1511      C1514   1.450       .  S
C1514      N1535   1.342       .  A
C1514      C1552   1.407       .  S
N1515      N1521   1.316       .  A
N1516      C1542   1.333       .  A
N1516      N1518   1.316       .  A
N1516     Co1532   2.053       .  S
N1517      C1531   1.335       .  A
N1518      N1546   1.319       .  A
N1518     Co1536   2.058       .  S
H1519      C1542   1.082       .  S
H1520      C1537   1.082       .  S
N1522     Co1536   2.058       .  S
N1523      N1535   1.318       .  A
N1523      N1539   1.316       .  A
N1523     Co1532   2.055       .  S
C1524      N1528   1.343       .  A
C1524      C1538   1.448       .  S
C1524      C1550   1.407       .  S
C1525      H1529   1.082       .  S
C1525      C1544   1.448       .  S
N1526      C1537   1.335       .  A
N1526     Co1536   2.059       .  S
C1530      N1546   1.343       .  A
C1530      C1542   1.447       .  S
C1530      C1566   1.406       .  S
Co1532    Cl1543   2.428       .  S
N1533      C1544   1.344       .  A
C1534      C1569   1.406       .  S
Co1536    Cl1543   2.437       .  S
C1544      C1558   1.407       .  S
C1547      C1548   1.188       .  T
C1549      C1550   1.189       .  T
C1551      C1552   1.189       .  T
C1553      C1554   1.189       .  T
C1555      C1556   1.188       .  T
C1557      C1558   1.189       .  T
C1559      C1560   1.188       .  T
C1561      C1562   1.188       .  T
C1563      C1564   1.188       .  T
C1565      C1566   1.188       .  T
C1567      C1568   1.189       .  T
C1569      C1570   1.188       .  T
C1571      C1572   1.189       .  T
C1573      C1574   1.189       .  T
C1575      C1576   1.189       .  T
C1577      C1578   1.189       .  T
C1579      C1581   1.541       .  S
C1579      C1583   1.537       .  S
C1579      C1582   1.536       .  S
C1579      C2103   1.438       .  S
C1580      C1584   1.537       .  S
C1580      C1586   1.541       .  S
C1580      C1585   1.536       .  S
C1580      C2101   1.438       .  S
C1581      C1589   1.387       .  A
C1581      C1584   1.383       .  A
C1582      C1593   1.383       .  A
C1582      C1585   1.381       .  A
C1583      C1597   1.383       .  A
C1583      C1586   1.383       .  A
C1584      C1587   1.383       .  A
C1585      C1591   1.383       .  A
C1586      C1594   1.388       .  A
C1587      N1588   1.365       .  A
C1587      H1600   1.082       .  S
N1588      C1589   1.366       .  A
N1588      C1862   1.460       .  S
C1589      H1590   1.082       .  S
C1591      N1592   1.364       .  A
C1591      H1601   1.082       .  S
N1592      C1593   1.364       .  A
N1592      C1623   1.456       .  S
C1593      H1599   1.082       .  S
C1594      N1595   1.367       .  A
C1594      H1596   1.082       .  S
N1595      C1597   1.364       .  A
N1595      C1679   1.460       .  S
C1597      H1598   1.082       .  S
N1602      C1607   1.357       .  A
N1602      H1634   1.041       .  S
N1603      C1610   1.356       .  A
N1603      C1611   1.356       .  A
N1604      C1609   1.357       .  A
N1604      H1635   1.041       .  S
N1605      C1612   1.356       .  A
N1605      C1613   1.356       .  A
C1606      C1614   1.386       .  A
C1606      C1622   1.422       .  A
C1607      C1623   1.422       .  A
C1607      C1615   1.386       .  A
C1608      C1616   1.386       .  A
C1608      C1625   1.421       .  A
C1609      C1624   1.421       .  A
C1609      C1617   1.386       .  A
C1610      C1622   1.420       .  A
C1610      C1618   1.385       .  A
C1611      C1625   1.420       .  A
C1611      C1619   1.385       .  A
C1612      C1620   1.385       .  A
C1612      C1623   1.420       .  A
C1613      C1621   1.385       .  A
C1613      C1624   1.420       .  A
C1614      H1626   1.082       .  S
C1615      H1627   1.082       .  S
C1616      H1628   1.082       .  S
C1617      H1629   1.082       .  S
C1618      C1619   1.376       .  A
C1618      H1630   1.082       .  S
C1619      H1631   1.082       .  S
C1620      C1621   1.376       .  A
C1620      H1632   1.082       .  S
C1621      H1633   1.082       .  S
C1622      N1911   1.456       .  S
C1624      N1957   1.456       .  S
C1625      N1649   1.456       .  S
C1636      C1638   1.541       .  S
C1636      C1640   1.537       .  S
C1636      C1639   1.536       .  S
C1636      C2100   1.438       .  S
C1637      C1641   1.537       .  S
C1637      C1643   1.541       .  S
C1637      C1642   1.536       .  S
C1637      C2098   1.438       .  S
C1638      C1646   1.388       .  A
C1638      C1641   1.383       .  A
C1639      C1650   1.383       .  A
C1639      C1642   1.381       .  A
C1640      C1654   1.383       .  A
C1640      C1643   1.383       .  A
C1641      C1644   1.383       .  A
C1642      C1648   1.383       .  A
C1643      C1651   1.388       .  A
C1644      N1645   1.365       .  A
C1644      H1657   1.082       .  S
N1645      C1646   1.367       .  A
N1645      C1828   1.460       .  S
C1646      H1647   1.082       .  S
C1648      N1649   1.364       .  A
C1648      H1658   1.082       .  S
N1649      C1650   1.364       .  A
C1650      H1656   1.082       .  S
C1651      N1652   1.367       .  A
C1651      H1653   1.082       .  S
N1652      C1654   1.364       .  A
N1652      C1713   1.460       .  S
C1654      H1655   1.082       .  S
N1659      C1663   1.359       .  A
N1659      H1691   1.041       .  S
N1660      C1667   1.357       .  A
N1660      C1668   1.357       .  A
N1661      C1665   1.359       .  A
N1661      H1692   1.041       .  S
N1662      C1669   1.357       .  A
N1662      C1670   1.357       .  A
C1663      C1671   1.386       .  A
C1663      C1679   1.425       .  A
C1664      C1680   1.425       .  A
C1664      C1672   1.386       .  A
C1665      C1673   1.386       .  A
C1665      C1682   1.424       .  A
C1666      C1681   1.424       .  A
C1666      C1674   1.386       .  A
C1667      C1679   1.423       .  A
C1667      C1675   1.385       .  A
C1668      C1682   1.423       .  A
C1668      C1676   1.385       .  A
C1669      C1677   1.385       .  A
C1669      C1680   1.423       .  A
C1670      C1678   1.385       .  A
C1670      C1681   1.423       .  A
C1671      H1683   1.082       .  S
C1672      H1684   1.082       .  S
C1673      H1685   1.082       .  S
C1674      H1686   1.082       .  S
C1675      C1676   1.378       .  A
C1675      H1687   1.082       .  S
C1676      H1688   1.082       .  S
C1677      C1678   1.378       .  A
C1677      H1689   1.082       .  S
C1678      H1690   1.082       .  S
C1680      N1960   1.460       .  S
C1681      N1736   1.459       .  S
C1682      N1937   1.459       .  S
N1693      C1698   1.359       .  A
N1693      H1725   1.041       .  S
N1694      C1701   1.357       .  A
N1694      C1702   1.357       .  A
N1695      C1700   1.359       .  A
N1695      H1726   1.041       .  S
N1696      C1703   1.357       .  A
N1696      C1704   1.357       .  A
C1697      C1705   1.386       .  A
C1697      C1713   1.425       .  A
C1698      C1714   1.425       .  A
C1698      C1706   1.386       .  A
C1699      C1707   1.386       .  A
C1699      C1716   1.425       .  A
C1700      C1715   1.425       .  A
C1700      C1708   1.386       .  A
C1701      C1713   1.423       .  A
C1701      C1709   1.385       .  A
C1702      C1716   1.423       .  A
C1702      C1710   1.385       .  A
C1703      C1711   1.385       .  A
C1703      C1714   1.423       .  A
C1704      C1712   1.385       .  A
C1704      C1715   1.423       .  A
C1705      H1717   1.082       .  S
C1706      H1718   1.082       .  S
C1707      H1719   1.082       .  S
C1708      H1720   1.082       .  S
C1709      C1710   1.378       .  A
C1709      H1721   1.082       .  S
C1710      H1722   1.082       .  S
C1711      C1712   1.378       .  A
C1711      H1723   1.082       .  S
C1712      H1724   1.082       .  S
C1714      N1914   1.460       .  S
C1715      N1800   1.459       .  S
C1716      N1891   1.460       .  S
C1727      C1729   1.541       .  S
C1727      C1731   1.537       .  S
C1727      C1730   1.536       .  S
C1727      C2096   1.437       .  S
C1728      C1732   1.537       .  S
C1728      C1734   1.541       .  S
C1728      C1733   1.536       .  S
C1728      C2093   1.438       .  S
C1729      C1737   1.388       .  A
C1729      C1732   1.382       .  A
C1730      C1741   1.383       .  A
C1730      C1733   1.381       .  A
C1731      C1745   1.383       .  A
C1731      C1734   1.382       .  A
C1732      C1735   1.383       .  A
C1733      C1739   1.382       .  A
C1734      C1742   1.388       .  A
C1735      N1736   1.364       .  A
C1735      H1748   1.082       .  S
N1736      C1737   1.367       .  A
C1737      H1738   1.082       .  S
C1739      N1740   1.364       .  A
C1739      H1749   1.082       .  S
N1740      C1741   1.364       .  A
N1740      C1770   1.456       .  S
C1741      H1747   1.082       .  S
C1742      N1743   1.367       .  A
C1742      H1744   1.082       .  S
N1743      C1745   1.364       .  A
N1743      C1830   1.460       .  S
C1745      H1746   1.082       .  S
N1750      C1755   1.358       .  A
N1750      C1754   1.358       .  A
N1750      H1782   1.039       .  S
N1751      C1759   1.356       .  A
N1752      C1757   1.358       .  A
N1752      C1756   1.358       .  A
N1752      H1783   1.039       .  S
N1753      C1761   1.356       .  A
C1754      C1762   1.386       .  A
C1754      C1770   1.422       .  A
C1755      C1771   1.422       .  A
C1755      C1763   1.386       .  A
C1756      C1764   1.386       .  A
C1756      C1773   1.422       .  A
C1757      C1772   1.422       .  A
C1757      C1765   1.386       .  A
C1758      C1770   1.420       .  A
C1758      C1766   1.385       .  A
C1759      C1773   1.420       .  A
C1759      C1767   1.385       .  A
C1760      C1768   1.385       .  A
C1760      C1771   1.420       .  A
C1761      C1769   1.385       .  A
C1761      C1772   1.420       .  A
C1762      C1763   1.379       .  A
C1762      H1774   1.082       .  S
C1763      H1775   1.082       .  S
C1764      C1765   1.379       .  A
C1764      H1776   1.082       .  S
C1765      H1777   1.082       .  S
C1766      H1778   1.082       .  S
C1767      H1779   1.082       .  S
C1768      H1780   1.082       .  S
C1769      H1781   1.082       .  S
C1771      N1934   1.456       .  S
C1772      N1797   1.456       .  S
C1773      N1888   1.456       .  S
C1784      C1786   1.541       .  S
C1784      C1788   1.537       .  S
C1784      C1787   1.536       .  S
C1784      C2089   1.437       .  S
C1785      C1789   1.537       .  S
C1785      C1791   1.541       .  S
C1785      C1790   1.536       .  S
C1785      C2091   1.436       .  S
C1786      C1794   1.388       .  A
C1786      C1789   1.382       .  A
C1787      C1798   1.382       .  A
C1787      C1790   1.381       .  A
C1788      C1802   1.383       .  A
C1788      C1791   1.382       .  A
C1789      C1792   1.383       .  A
C1790      C1796   1.383       .  A
C1791      C1799   1.388       .  A
C1792      N1793   1.364       .  A
C1792      H1805   1.082       .  S
N1793      C1794   1.367       .  A
N1793      C1864   1.460       .  S
C1794      H1795   1.082       .  S
C1796      N1797   1.364       .  A
C1796      H1806   1.082       .  S
N1797      C1798   1.364       .  A
C1798      H1804   1.082       .  S
C1799      N1800   1.367       .  A
C1799      H1801   1.082       .  S
N1800      C1802   1.364       .  A
C1802      H1803   1.082       .  S
N1807      C1812   1.360       .  A
N1807      C1811   1.360       .  A
N1807      H1839   1.039       .  S
N1808      C1815   1.357   1_556  A
N1808      C1816   1.357       .  A
N1809      C1814   1.360       .  A
N1809      C1813   1.360       .  A
N1809      H1840   1.040       .  S
N1810      C1817   1.358   1_556  A
N1810      C1818   1.358       .  A
C1811      C1819   1.386       .  A
C1811      C1827   1.425       .  A
C1812      C1828   1.425       .  A
C1812      C1820   1.386       .  A
C1813      C1821   1.386       .  A
C1813      C1830   1.425       .  A
C1814      C1829   1.425       .  A
C1814      C1822   1.386       .  A
C1815      C1827   1.423       .  A
C1815      C1823   1.385       .  A
C1816      C1830   1.423       .  A
C1816      C1824   1.385       .  A
C1817      C1825   1.385       .  A
C1817      C1828   1.423       .  A
C1818      C1826   1.385       .  A
C1818      C1829   1.423       .  A
C1819      C1820   1.378       .  A
C1819      H1831   1.082       .  S
C1820      H1832   1.082       .  S
C1821      C1822   1.378       .  A
C1821      H1833   1.082       .  S
C1822      H1834   1.082       .  S
C1823      C1824   1.378   1_554  A
C1823      H1835   1.082       .  S
C1824      H1836   1.082       .  S
C1825      C1826   1.378   1_554  A
C1825      H1837   1.082       .  S
C1826      H1838   1.082       .  S
C1827      N1953   1.459       .  S
C1829      N1884   1.460       .  S
N1841      C1846   1.359       .  A
N1841      C1845   1.359       .  A
N1841      H1873   1.040       .  S
N1842      C1849   1.357   1_556  A
N1842      C1850   1.357       .  A
N1843      C1848   1.360       .  A
N1843      C1847   1.360       .  A
N1843      H1874   1.040       .  S
N1844      C1851   1.358   1_556  A
N1844      C1852   1.358       .  A
C1845      C1853   1.386       .  A
C1845      C1861   1.424       .  A
C1846      C1862   1.424       .  A
C1846      C1854   1.386       .  A
C1847      C1855   1.386       .  A
C1847      C1864   1.425       .  A
C1848      C1863   1.425       .  A
C1848      C1856   1.386       .  A
C1849      C1861   1.423       .  A
C1849      C1857   1.385       .  A
C1850      C1864   1.423       .  A
C1850      C1858   1.385       .  A
C1851      C1859   1.385       .  A
C1851      C1862   1.423       .  A
C1852      C1860   1.385       .  A
C1852      C1863   1.423       .  A
C1853      C1854   1.378       .  A
C1853      H1865   1.082       .  S
C1854      H1866   1.082       .  S
C1855      C1856   1.378       .  A
C1855      H1867   1.082       .  S
C1856      H1868   1.082       .  S
C1857      C1858   1.378   1_554  A
C1857      H1869   1.082       .  S
C1858      H1870   1.082       .  S
C1859      C1860   1.378   1_554  A
C1859      H1871   1.082       .  S
C1860      H1872   1.082       .  S
C1861      N1907   1.459       .  S
C1863      N1930   1.460       .  S
C1875      C1877   1.537       .  S
C1875      C1879   1.541       .  S
C1875      C1878   1.536       .  S
C1875      C2086   1.437       .  S
C1876      C1880   1.541       .  S
C1876      C1882   1.537       .  S
C1876      C1881   1.535       .  S
C1876      C2088   1.437       .  S
C1877      C1885   1.383       .  A
C1877      C1880   1.383       .  A
C1878      C1889   1.383       .  A
C1878      C1881   1.381       .  A
C1879      C1893   1.388       .  A
C1879      C1882   1.383       .  A
C1880      C1883   1.388       .  A
C1881      C1887   1.383       .  A
C1882      C1890   1.383       .  A
C1883      N1884   1.367       .  A
C1883      H1896   1.082       .  S
N1884      C1885   1.364       .  A
C1885      H1886   1.082       .  S
C1887      N1888   1.364       .  A
C1887      H1897   1.082       .  S
N1888      C1889   1.364       .  A
C1889      H1895   1.082       .  S
C1890      N1891   1.364       .  A
C1890      H1892   1.082       .  S
N1891      C1893   1.367       .  A
C1893      H1894   1.082       .  S
C1898      C1900   1.537       .  S
C1898      C1902   1.541       .  S
C1898      C1901   1.536       .  S
C1898      C2083   1.438       .  S
C1899      C1903   1.540       .  S
C1899      C1905   1.536       .  S
C1899      C1904   1.536       .  S
C1899      C2081   1.437       .  S
C1900      C1908   1.383       .  A
C1900      C1903   1.382       .  A
C1901      C1912   1.382       .  A
C1901      C1904   1.382       .  A
C1902      C1916   1.388       .  A
C1902      C1905   1.382       .  A
C1903      C1906   1.387       .  A
C1904      C1910   1.383       .  A
C1905      C1913   1.383       .  A
C1906      N1907   1.366       .  A
C1906      H1919   1.082       .  S
N1907      C1908   1.364       .  A
C1908      H1909   1.082       .  S
C1910      N1911   1.364       .  A
C1910      H1920   1.082       .  S
N1911      C1912   1.364       .  A
C1912      H1918   1.082       .  S
C1913      N1914   1.364       .  A
C1913      H1915   1.082       .  S
N1914      C1916   1.367       .  A
C1916      H1917   1.082       .  S
C1921      C1923   1.537       .  S
C1921      C1925   1.541       .  S
C1921      C1924   1.536       .  S
C1921      C2077   1.437       .  S
C1922      C1926   1.541       .  S
C1922      C1928   1.537       .  S
C1922      C1927   1.535       .  S
C1922      C2079   1.438       .  S
C1923      C1931   1.383       .  A
C1923      C1926   1.383       .  A
C1924      C1935   1.383       .  A
C1924      C1927   1.381       .  A
C1925      C1939   1.388       .  A
C1925      C1928   1.383       .  A
C1926      C1929   1.388       .  A
C1927      C1933   1.383       .  A
C1928      C1936   1.383       .  A
C1929      N1930   1.367       .  A
C1929      H1942   1.082       .  S
N1930      C1931   1.364       .  A
C1931      H1932   1.082       .  S
C1933      N1934   1.364       .  A
C1933      H1943   1.082       .  S
N1934      C1935   1.364       .  A
C1935      H1941   1.082       .  S
C1936      N1937   1.364       .  A
C1936      H1938   1.082       .  S
N1937      C1939   1.367       .  A
C1939      H1940   1.082       .  S
C1944      C1946   1.537       .  S
C1944      C1948   1.541       .  S
C1944      C1947   1.536       .  S
C1944      C2075   1.437       .  S
C1945      C1949   1.541       .  S
C1945      C1951   1.537       .  S
C1945      C1950   1.536       .  S
C1945      C2074   1.437       .  S
C1946      C1954   1.383       .  A
C1946      C1949   1.382       .  A
C1947      C1958   1.382       .  A
C1947      C1950   1.382       .  A
C1948      C1962   1.388       .  A
C1948      C1951   1.382       .  A
C1949      C1952   1.387       .  A
C1950      C1956   1.383       .  A
C1951      C1959   1.383       .  A
C1952      N1953   1.366       .  A
C1952      H1965   1.082       .  S
N1953      C1954   1.364       .  A
C1954      H1955   1.082       .  S
C1956      N1957   1.364       .  A
C1956      H1966   1.082       .  S
N1957      C1958   1.364       .  A
C1958      H1964   1.082       .  S
C1959      N1960   1.364       .  A
C1959      H1961   1.082       .  S
N1960      C1962   1.367       .  A
C1962      H1963   1.082       .  S
C1967      N1985   1.343       .  A
C1967      C2004   1.447       .  S
C1967      C2073   1.406       .  S
N1968      N1985   1.319       .  A
N1968      N1990   1.316       .  A
C1969      N1994   1.335       .  A
C1969      H2014   1.082       .  S
C1969      C2007   1.450       .  S
H1970      C2011   1.082       .  S
C1971      N1995   1.333       .  A
C1971      H2000   1.082       .  S
C1971      C1975   1.448       .  S
Co1972     N1980   2.055   1_556  S
Co1972     N1988   2.055       .  S
N1973      C2011   1.335       .  A
N1973      N1980   1.316       .  A
Co1974     N1977   2.059   1_556  S
Co1974     N1981   2.058       .  S
Co1974    Cl2016   2.437       .  S
C1975      N2013   1.343       .  A
C1975      C2082   1.406       .  S
N1976      N1983   1.316       .  A
N1976      N2006   1.318       .  A
N1976     Co2009   2.055   1_554  S
N1977      N1995   1.316       .  A
N1977      N2013   1.319       .  A
N1978      C2007   1.342       .  A
N1978      N1988   1.318       .  A
H1979      C2004   1.082       .  S
N1980      N2001   1.318       .  A
N1981      N1999   1.316       .  A
N1981      N1986   1.319       .  A
C1982      N1986   1.343       .  A
C1982      C2010   1.448       .  S
C1982      C2090   1.406       .  S
N1983      C1998   1.335       .  A
N1983     Co2005   2.059   1_654  S
C1984      N2012   1.333       .  A
C1984      H2018   1.082       .  S
C1984      C1987   1.448       .  S
C1987      N2008   1.343       .  A
C1987      C2094   1.407       .  S
N1988      N1994   1.316       .  A
N1989      C2015   1.334       .  A
N1989      N1991   1.316       .  A
N1989     Co2005   2.057   1_655  S
N1990      C2004   1.333       .  A
N1991      N2019   1.318       .  A
N1991     Co2009   2.055       .  S
H1992      C2015   1.082       .  S
H1993      C2010   1.082       .  S
N1996      N2008   1.319       .  A
N1996      N2012   1.316       .  A
C1997      N2001   1.342       .  A
C1997      C2011   1.450       .  S
C1997      C2104   1.407       .  S
C1998      H2002   1.082       .  S
C1998      C2017   1.450       .  S
N1999      C2010   1.333       .  A
C2003      N2019   1.342       .  A
C2003      C2015   1.450       .  S
C2003      C2087   1.406       .  S
N2006      C2017   1.342       .  A
C2007      C2080   1.407       .  S
C2017      C2099   1.407       .  S
C2020      N2038   1.342       .  A
C2020      C2057   1.450       .  S
C2020      C2102   1.407       .  S
N2021      N2038   1.318       .  A
N2021      N2043   1.316       .  A
N2021     Co2058   2.055       .  S
C2022      N2047   1.333       .  A
C2022      H2067   1.082       .  S
C2022      C2060   1.447       .  S
H2023      C2064   1.082       .  S
C2024      N2048   1.335       .  A
C2024      H2053   1.082       .  S
C2024      C2028   1.450       .  S
Co2025     N2043   2.059       .  S
Co2025     N2033   2.059       .  S
Co2025     N2065   2.058       .  S
Co2025     N2041   2.059       .  S
Co2025    Cl2069   2.437       .  S
N2026      C2064   1.333       .  A
N2026      N2033   1.316       .  A
N2026     Co2027   2.055       .  S
Co2027     N2030   2.056       .  S
Co2027     N2047   2.054       .  S
Co2027     N2034   2.054       .  S
Co2027    Cl2069   2.429       .  S
C2028      N2066   1.342       .  A
C2028      C2097   1.407       .  S
N2029      N2036   1.316       .  A
N2029      N2059   1.319       .  A
N2029     Co2062   2.060       .  S
N2030      N2048   1.316       .  A
N2030      N2066   1.318       .  A
N2031      C2060   1.344       .  A
N2031      N2041   1.319       .  A
H2032      C2057   1.082       .  S
N2033      N2054   1.319       .  A
N2034      N2052   1.316       .  A
N2034      N2039   1.318       .  A
C2035      N2039   1.341       .  A
C2035      C2063   1.450       .  S
C2035      C2085   1.406       .  S
N2036      C2051   1.333       .  A
N2036     Co2058   2.055       .  S
C2037      N2065   1.335       .  A
C2037      H2071   1.082       .  S
C2037      C2040   1.450       .  S
C2040      N2061   1.342       .  A
C2040      C2078   1.407       .  S
N2041      N2047   1.316       .  A
N2042      C2068   1.333       .  A
N2042      N2044   1.316       .  A
N2042     Co2058   2.053       .  S
N2043      C2057   1.335       .  A
N2044      N2072   1.319       .  A
N2044     Co2062   2.058       .  S
H2045      C2068   1.082       .  S
H2046      C2063   1.082       .  S
N2048     Co2062   2.058       .  S
N2049      N2061   1.318       .  A
N2049      N2065   1.316       .  A
N2049     Co2058   2.055       .  S
C2050      N2054   1.343       .  A
C2050      C2064   1.448       .  S
C2050      C2076   1.407       .  S
C2051      H2055   1.082       .  S
C2051      C2070   1.448       .  S
N2052      C2063   1.335       .  A
N2052     Co2062   2.059       .  S
C2056      N2072   1.343       .  A
C2056      C2068   1.447       .  S
C2056      C2092   1.406       .  S
Co2058    Cl2069   2.428       .  S
N2059      C2070   1.344       .  A
C2060      C2095   1.406       .  S
Co2062    Cl2069   2.437       .  S
C2070      C2084   1.407       .  S
C2073      C2074   1.188       .  T
C2075      C2076   1.189       .  T
C2077      C2078   1.189       .  T
C2079      C2080   1.189       .  T
C2081      C2082   1.188       .  T
C2083      C2084   1.189       .  T
C2085      C2086   1.188       .  T
C2087      C2088   1.188       .  T
C2089      C2090   1.188       .  T
C2091      C2092   1.188       .  T
C2093      C2094   1.189       .  T
C2095      C2096   1.188       .  T
C2097      C2098   1.189       .  T
C2099      C2100   1.189       .  T
C2101      C2102   1.189       .  T
C2103      C2104   1.189       .  T
