geometry optimzed in LAMMPS
_audit_creation_date              2020-12-01 
_audit_creation_method            'lammps2cif' 
_symmetry_space_group_name_H-M    'P1' 
_symmetry_Int_Tables_number       1 
_symmetry_cell_setting            triclinic 
loop_ 
_symmetry_equiv_pos_as_xyz 
  x,y,z 
_cell_length_a                    52.73574863 
_cell_length_b                    52.7356984681978 
_cell_length_c                    35.36496509877156 
_cell_angle_alpha                 89.99337366939767 
_cell_angle_beta                  90.00874891947774 
_cell_angle_gamma                 90.00269177406862 
loop_ 
_atom_site_label 
_atom_site_type_symbol 
_atom_site_fract_x 
_atom_site_fract_y 
_atom_site_fract_z 
_atom_site_charge 
In1        In  0.39707573  0.74741178  0.32292550     1.36900
C2          C  0.36645369  0.78742437  0.32326120     0.79700
O3          O  0.37482108  0.73356645  0.27275243    -0.58700
O4          O  0.38225164  0.70755141  0.31718858    -0.49600
C5          C  0.44153429  0.74650618  0.28730636     0.72400
O6          O  0.42422928  0.76191602  0.27894375    -0.44500
C7          C  0.40579370  0.74526376  0.39684420     0.77100
O8          O  0.38922109  0.78882453  0.31274118    -0.56300
O9          O  0.39246784  0.72906547  0.37985733    -0.46400
O10         O  0.35935795  0.76575413  0.33376390    -0.52800
C11         C  0.37191065  0.71153400  0.28567682     0.87300
O12         O  0.43629555  0.73151654  0.31386351    -0.54700
O13         O  0.41506441  0.76233646  0.37614264    -0.57900
In14       In  0.59680716  0.74643403  0.15957751     1.36900
C15         C  0.62789875  0.78595494  0.16009931     0.79700
O16         O  0.61898782  0.73205654  0.20936384    -0.58700
O17         O  0.61049364  0.70617955  0.16510039    -0.49600
C18         C  0.55237670  0.74564494  0.19513148     0.72400
O19         O  0.56969491  0.76106094  0.20343764    -0.44500
C20         C  0.58873587  0.74556936  0.08543619     0.77100
O21         O  0.60493499  0.78777113  0.16949516    -0.56300
O22         O  0.60189831  0.72905777  0.10204296    -0.46400
O23         O  0.63500333  0.76407342  0.15063981    -0.52800
C24         C  0.62111133  0.70991206  0.19649904     0.87300
O25         O  0.55758852  0.73059536  0.16863305    -0.54700
O26         O  0.57922061  0.76220881  0.10663513    -0.57900
In27       In  0.75616647  0.10870355  0.32140190     1.36900
C28         C  0.71684047  0.14030767  0.32196850     0.79700
O29         O  0.74150221  0.09000381  0.37433244    -0.58700
O30         O  0.77410411  0.11348118  0.37854951    -0.49600
C31         C  0.75658658  0.06427090  0.28563008     0.72400
O32         O  0.74100372  0.08155843  0.27778786    -0.44500
C33         C  0.79270902  0.13298414  0.28422102     0.77100
O34         O  0.71463656  0.11723143  0.31347118    -0.56300
O35         O  0.79624339  0.12303825  0.31615825    -0.46400
O36         O  0.73898044  0.14727241  0.33020241    -0.52800
C37         C  0.75828133  0.09956904  0.39525290     0.87300
O38         O  0.77198326  0.06956481  0.31164795    -0.54700
O39         O  0.77080263  0.13000637  0.27077773    -0.57900
In40       In  0.75573149  0.90795697  0.16001930     1.36900
C41         C  0.71666371  0.87606830  0.15952079     0.79700
O42         O  0.73928120  0.92548851  0.10735121    -0.58700
O43         O  0.77451585  0.90618894  0.10312275    -0.49600
C44         C  0.75677319  0.95263273  0.19512658     0.72400
O45         O  0.74059281  0.93582757  0.20255147    -0.44500
C46         C  0.79177113  0.88251400  0.19676775     0.77100
O47         O  0.71453599  0.89878542  0.16994691    -0.56300
O48         O  0.79446417  0.89015573  0.16329433    -0.46400
O49         O  0.73859147  0.86960210  0.14940438    -0.52800
C50         C  0.75718700  0.91820720  0.08647164     0.87300
O51         O  0.77254312  0.94671753  0.16991079    -0.54700
O52         O  0.77096125  0.88831924  0.21193419    -0.57900
In53       In  0.59639608  0.26945521  0.32272238     1.36900
C54         C  0.62722245  0.22963790  0.32236802     0.79700
O55         O  0.61833766  0.28382231  0.27289008    -0.58700
O56         O  0.61111540  0.30936272  0.31816305    -0.49600
C57         C  0.55264696  0.27099662  0.28541874     0.72400
O58         O  0.56943859  0.25464833  0.27881203    -0.44500
C59         C  0.58742841  0.27074110  0.39656573     0.77100
O60         O  0.60402162  0.22780590  0.31439948    -0.56300
O61         O  0.60203201  0.28621182  0.38047022    -0.46400
O62         O  0.63465022  0.25163669  0.33051800    -0.52800
C63         C  0.62122279  0.30572214  0.28636033     0.87300
O64         O  0.55803030  0.28658918  0.31115361    -0.54700
O65         O  0.57688396  0.25496289  0.37499253    -0.57900
In66       In  0.39811119  0.27073273  0.15571274     1.36900
C67         C  0.36585754  0.23206945  0.15623141     0.79700
O68         O  0.37657948  0.28458871  0.20638296    -0.58700
O69         O  0.38392799  0.31079689  0.16212443    -0.49600
C70         C  0.44271650  0.27139453  0.19078882     0.72400
O71         O  0.42619167  0.25472306  0.19708820    -0.44500
C72         C  0.40734960  0.27135948  0.08189605     0.77100
O73         O  0.38816328  0.23018436  0.16867342    -0.56300
O74         O  0.39443642  0.28824429  0.09808535    -0.46400
O75         O  0.36001607  0.25357768  0.14345092    -0.52800
C76         C  0.37399146  0.30677468  0.19392722     0.87300
O77         O  0.43668437  0.28766309  0.16635237    -0.54700
O78         O  0.41605411  0.25442189  0.10337073    -0.57900
In79       In  0.23733242  0.90802155  0.32085214     1.36900
C80         C  0.27726276  0.87718773  0.32185928     0.79700
O81         O  0.25105900  0.92747864  0.37362552    -0.58700
O82         O  0.22018305  0.90178569  0.37824925    -0.49600
C83         C  0.23682349  0.95231559  0.28462544     0.72400
O84         O  0.25212165  0.93483138  0.27647967    -0.44500
C85         C  0.20078174  0.88360119  0.28391702     0.77100
O86         O  0.27901192  0.90018274  0.31256966    -0.56300
O87         O  0.19678008  0.89534223  0.31433074    -0.46400
O88         O  0.25529562  0.86996279  0.33061649    -0.52800
C89         C  0.23518006  0.91668738  0.39476532     0.87300
O90         O  0.22171622  0.94726420  0.31112291    -0.54700
O91         O  0.22319684  0.88481493  0.27183081    -0.57900
In92       In  0.23841044  0.10897176  0.15936342     1.36900
C93         C  0.27687122  0.14169021  0.15834366     0.79700
O94         O  0.25421684  0.09158227  0.10607846    -0.58700
O95         O  0.21909382  0.11118313  0.10296464    -0.49600
C96         C  0.23786511  0.06414789  0.19436283     0.72400
O97         O  0.25459221  0.08064008  0.20059172    -0.44500
C98         C  0.20260651  0.13411769  0.19688170     0.77100
O99         O  0.27928222  0.11931439  0.17027083    -0.56300
O100        O  0.19911723  0.12520155  0.16430375    -0.46400
O101        O  0.25501627  0.14732776  0.14683090    -0.52800
C102        C  0.23612688  0.09914109  0.08573394     0.87300
O103        O  0.22145560  0.07039098  0.17027479    -0.54700
O104        O  0.22409929  0.12965755  0.21088743    -0.57900
In105      In  0.39825620  0.74918740  0.65919884     1.36900
C106        C  0.36644869  0.78840807  0.65945076     0.79700
O107        O  0.41683006  0.76343538  0.60575940    -0.58700
O108        O  0.39318466  0.73096707  0.60230251    -0.49600
C109        C  0.44299392  0.74749904  0.69426939     0.72400
O110        O  0.42771013  0.76562667  0.69827035    -0.44500
C111        C  0.37327212  0.71391022  0.69794561     0.77100
O112        O  0.38923339  0.79042064  0.66970861    -0.56300
O113        O  0.38260188  0.70979972  0.66576740    -0.46400
O114        O  0.35992717  0.76655029  0.64903234    -0.52800
C115        C  0.40699947  0.74663245  0.58516919     0.87300
O116        O  0.43568642  0.73034095  0.67206172    -0.54700
O117        O  0.37717408  0.73581776  0.71089347    -0.57900
In118      In  0.59821948  0.74889401  0.82327976     1.36900
C119        C  0.62947262  0.78861432  0.82368830     0.79700
O120        O  0.57907942  0.76407258  0.87563683    -0.58700
O121        O  0.60239736  0.73141924  0.88078679    -0.49600
C122        C  0.55374976  0.74709621  0.78745298     0.72400
O123        O  0.57027077  0.76366486  0.78046734    -0.44500
C124        C  0.62379153  0.71287135  0.78670665     0.77100
O125        O  0.60687780  0.79018630  0.81240584    -0.56300
O126        O  0.61436331  0.70942038  0.81899448    -0.46400
O127        O  0.63610790  0.76692726  0.83470902    -0.52800
C128        C  0.58856595  0.74750886  0.89703601     0.87300
O129        O  0.55978920  0.73141846  0.81274570    -0.54700
O130        O  0.61967623  0.73440608  0.77262504    -0.57900
In131      In  0.75868843  0.10814211  0.65738153     1.36900
C132        C  0.71933458  0.13957356  0.65796723     0.79700
O133        O  0.77233654  0.12940131  0.70860554    -0.58700
O134        O  0.79793480  0.12456035  0.66285501    -0.49600
C135        C  0.75975121  0.06378105  0.69342551     0.72400
O136        O  0.74271037  0.08004548  0.69880046    -0.44500
C137        C  0.76023952  0.09865202  0.58349794     0.77100
O138        O  0.71774501  0.11698530  0.66923722    -0.56300
O139        O  0.77730546  0.11094179  0.60029929    -0.46400
O140        O  0.74086816  0.14609580  0.64606374    -0.52800
C141        C  0.79405581  0.13358134  0.69528588     0.87300
O142        O  0.77626883  0.06993801  0.66943001    -0.54700
O143        O  0.74265979  0.09063448  0.60438896    -0.57900
In144      In  0.75870579  0.90950651  0.82454821     1.36900
C145        C  0.71918003  0.87812278  0.82427255     0.79700
O146        O  0.77373862  0.88766914  0.77483966    -0.58700
O147        O  0.79891060  0.89522354  0.82035135    -0.49600
C148        C  0.75949056  0.95354658  0.78768879     0.72400
O149        O  0.74376266  0.93630342  0.78034740    -0.44500
C150        C  0.75941955  0.91899337  0.89838652     0.77100
O151        O  0.71732934  0.90106743  0.81482534    -0.56300
O152        O  0.77573334  0.90522162  0.88249249    -0.46400
O153        O  0.74109970  0.87116298  0.83379241    -0.52800
C154        C  0.79561920  0.88506436  0.78850561     0.87300
O155        O  0.77487781  0.94842879  0.81380859    -0.54700
O156        O  0.74305106  0.92840948  0.87662688    -0.57900
In157      In  0.59683584  0.26725802  0.65863587     1.36900
C158        C  0.62894038  0.22828305  0.66051052     0.79700
O159        O  0.58103492  0.25034880  0.60509546    -0.58700
O160        O  0.59903033  0.28632640  0.60199277    -0.49600
C161        C  0.55151652  0.26918432  0.69195450     0.72400
O162        O  0.56784721  0.25264370  0.69997235    -0.44500
C163        C  0.62153218  0.30344456  0.69598838     0.77100
O164        O  0.60586920  0.22599277  0.66900410    -0.56300
O165        O  0.61549003  0.30555285  0.66170032    -0.46400
O166        O  0.63563045  0.25030852  0.65121603    -0.52800
C167        C  0.58797201  0.26864955  0.58471199     0.87300
O168        O  0.55811599  0.28467027  0.66673125    -0.54700
O169        O  0.61459894  0.28310656  0.71154186    -0.57900
In170      In  0.39606697  0.26736118  0.82013453     1.36900
C171        C  0.36458802  0.22790862  0.82130898     0.79700
O172        O  0.41446411  0.25175728  0.87276182    -0.58700
O173        O  0.39330850  0.28587954  0.87716894    -0.49600
C174        C  0.44035996  0.26960708  0.78386231     0.72400
O175        O  0.42462902  0.25200647  0.77870285    -0.44500
C176        C  0.37003323  0.30256174  0.78283291     0.77100
O177        O  0.38717691  0.22607089  0.81005612    -0.56300
O178        O  0.37923335  0.30638716  0.81517896    -0.46400
O179        O  0.35804713  0.24975598  0.83177651    -0.52800
C180        C  0.40621103  0.26917663  0.89374582     0.87300
O181        O  0.43367367  0.28602948  0.80766961    -0.54700
O182        O  0.37443350  0.28096146  0.76914140    -0.57900
In183      In  0.23634643  0.90828242  0.65691052     1.36900
C184        C  0.27616855  0.87728527  0.65821806     0.79700
O185        O  0.22133338  0.88705025  0.70720533    -0.58700
O186        O  0.19652107  0.89310653  0.66073060    -0.49600
C187        C  0.23465206  0.95251537  0.69327982     0.72400
O188        O  0.25106774  0.93584440  0.70022888    -0.44500
C189        C  0.23512610  0.91723484  0.58293564     0.77100
O190        O  0.27791215  0.90046359  0.66633323    -0.56300
O191        O  0.21951429  0.90285235  0.59914592    -0.46400
O192        O  0.25425622  0.86994265  0.64939796    -0.52800
C193        C  0.19968655  0.88364434  0.69307829     0.87300
O194        O  0.21903372  0.94673024  0.66777307    -0.54700
O195        O  0.25118500  0.92745119  0.60440940    -0.57900
In196      In  0.23526692  0.10730522  0.82348087     1.36900
C197        C  0.27490364  0.13845915  0.82413979     0.79700
O198        O  0.22132548  0.13001509  0.77401329    -0.58700
O199        O  0.19491119  0.12064296  0.81714695    -0.49600
C200        C  0.23465409  0.06312122  0.78683632     0.72400
O201        O  0.25012554  0.08052246  0.77910505    -0.44500
C202        C  0.23346463  0.09879229  0.89746453     0.77100
O203        O  0.27669079  0.11560236  0.81414519    -0.56300
O204        O  0.21737179  0.11235324  0.88066211    -0.46400
O205        O  0.25301555  0.14540412  0.83384781    -0.52800
C206        C  0.19897190  0.13167702  0.78616789     0.87300
O207        O  0.21959141  0.06807977  0.81342569    -0.54700
O208        O  0.25014461  0.08907790  0.87652023    -0.57900
In209      In  0.73618650  0.60684360  0.32317095     1.36900
C210        C  0.77556375  0.63824820  0.32239900     0.79700
O211        O  0.72154586  0.62820027  0.27266666    -0.58700
O212        O  0.69644495  0.62221984  0.31877089    -0.49600
C213        C  0.73474536  0.56237148  0.28747833     0.72400
O214        O  0.75100199  0.57912321  0.28016300    -0.44500
C215        C  0.73585738  0.59777725  0.39718020     0.77100
O216        O  0.77729187  0.61550487  0.31186583    -0.56300
O217        O  0.71908059  0.61086923  0.38106769    -0.46400
O218        O  0.75385056  0.64497659  0.33321741    -0.52800
C219        C  0.69982280  0.63165236  0.28645779     0.87300
O220        O  0.71916316  0.56819420  0.31300469    -0.54700
O221        O  0.75250203  0.58872732  0.37552889    -0.57900
In222      In  0.73544609  0.40780269  0.15710685     1.36900
C223        C  0.77524334  0.37693372  0.15691086     0.79700
O224        O  0.72193039  0.38482296  0.20646184    -0.58700
O225        O  0.69521520  0.39438082  0.16370197    -0.49600
C226        C  0.73443380  0.45139766  0.19507945     0.72400
O227        O  0.75124173  0.43483275  0.20036007    -0.44500
C228        C  0.73345307  0.41664255  0.08301217     0.77100
O229        O  0.77718420  0.40022707  0.16423818    -0.56300
O230        O  0.71873128  0.40139383  0.09934090    -0.46400
O231        O  0.75313363  0.36942668  0.14955959    -0.52800
C232        C  0.69950131  0.38320632  0.19453297     0.87300
O233        O  0.71812557  0.44582286  0.17044649    -0.54700
O234        O  0.74879887  0.42790011  0.10447699    -0.57900
In235      In  0.89618112  0.76758813  0.32293370     1.36900
C236        C  0.86470749  0.72812299  0.32237408     0.79700
O237        O  0.91441297  0.75310733  0.37650461    -0.58700
O238        O  0.89172020  0.78624103  0.37972106    -0.49600
C239        C  0.94103731  0.76845184  0.28820464     0.72400
O240        O  0.92529620  0.75078766  0.28379587    -0.44500
C241        C  0.87124616  0.80302632  0.28422726     0.77100
O242        O  0.88739160  0.72645329  0.31161405    -0.56300
O243        O  0.87998153  0.80685578  0.31684126    -0.46400
O244        O  0.85807377  0.74978983  0.33350162    -0.52800
C245        C  0.90517213  0.77030807  0.39695588     0.87300
O246        O  0.93406878  0.78571302  0.31048507    -0.54700
O247        O  0.87567365  0.78133838  0.27088890    -0.57900
In248      In  0.09668068  0.76757894  0.16040421     1.36900
C249        C  0.12827885  0.72842787  0.15876533     0.79700
O250        O  0.07910774  0.75240385  0.10694578    -0.58700
O251        O  0.10114003  0.78605192  0.10350095    -0.49600
C252        C  0.05230188  0.76755962  0.19652355     0.72400
O253        O  0.07002962  0.75263958  0.20502194    -0.44500
C254        C  0.12125319  0.80379411  0.19796847     0.77100
O255        O  0.10552815  0.72623338  0.16916265    -0.56300
O256        O  0.10929981  0.80808543  0.16782477    -0.46400
O257        O  0.13485795  0.75044960  0.14916956    -0.52800
C258        C  0.08821727  0.76960764  0.08632146     0.87300
O259        O  0.05708244  0.78238204  0.16958056    -0.54700
O260        O  0.12023157  0.78123351  0.20946287    -0.57900
In261      In  0.09787360  0.24913713  0.32183651     1.36900
C262        C  0.12943349  0.28845929  0.32189419     0.79700
O263        O  0.07975977  0.26395876  0.37520336    -0.58700
O264        O  0.10210829  0.23055744  0.37862173    -0.49600
C265        C  0.05311488  0.24748351  0.28671422     0.72400
O266        O  0.06899295  0.26490395  0.28120658    -0.44500
C267        C  0.12316706  0.21384527  0.28359453     0.77100
O268        O  0.10662788  0.29042963  0.31173571    -0.56300
O269        O  0.11390919  0.20985368  0.31584938    -0.46400
O270        O  0.13608812  0.26660219  0.33212871    -0.52800
C271        C  0.08876148  0.24665026  0.39571438     0.87300
O272        O  0.05991369  0.23092450  0.31025441    -0.54700
O273        O  0.11909653  0.23564190  0.27037308    -0.57900
In274      In  0.89695332  0.24875485  0.15968131     1.36900
C275        C  0.86548760  0.28817195  0.15895944     0.79700
O276        O  0.91510713  0.26431388  0.10680152    -0.58700
O277        O  0.89325845  0.23062388  0.10235979    -0.49600
C278        C  0.94149660  0.24762109  0.19557055     0.72400
O279        O  0.92454222  0.26362918  0.20309000    -0.44500
C280        C  0.87167090  0.21278247  0.19683473     0.77100
O281        O  0.88801155  0.28993079  0.17052247    -0.56300
O282        O  0.88169979  0.20900221  0.16504177    -0.46400
O283        O  0.85905672  0.26646153  0.14774644    -0.52800
C284        C  0.90631682  0.24719588  0.08570974     0.87300
O285        O  0.93586210  0.23222264  0.16971690    -0.54700
O286        O  0.87488314  0.23470093  0.21005989    -0.57900
In287      In  0.25934100  0.40821297  0.32350189     1.36900
C288        C  0.21986825  0.37694571  0.32271066     0.79700
O289        O  0.27417423  0.38680394  0.27333734    -0.58700
O290        O  0.29922780  0.39326615  0.31941307    -0.49600
C291        C  0.26030364  0.45222025  0.28668340     0.72400
O292        O  0.24394462  0.43540166  0.28031888    -0.44500
C293        C  0.26013836  0.41792616  0.39726855     0.77100
O294        O  0.21808404  0.39988836  0.31328412    -0.56300
O295        O  0.27624679  0.40386734  0.38149443    -0.46400
O296        O  0.24169599  0.36992359  0.33256999    -0.52800
C297        C  0.29593171  0.38366655  0.28718951     0.87300
O298        O  0.27631399  0.44667004  0.31177005    -0.54700
O299        O  0.24386848  0.42743996  0.37544729    -0.57900
In300      In  0.25732260  0.60774537  0.15896573     1.36900
C301        C  0.21815322  0.63933845  0.15872956     0.79700
O302        O  0.27090116  0.62971713  0.20953261    -0.58700
O303        O  0.29718150  0.62227707  0.16535605    -0.49600
C304        C  0.25835339  0.56329319  0.19469226     0.72400
O305        O  0.24147918  0.57966909  0.20072602    -0.44500
C306        C  0.25901282  0.59906719  0.08485877     0.77100
O307        O  0.21600926  0.61642160  0.16825059    -0.56300
O308        O  0.27501994  0.61273581  0.10160890    -0.46400
O309        O  0.24016019  0.64612573  0.14943148    -0.52800
C310        C  0.29303814  0.63254453  0.19689711     0.87300
O311        O  0.27467163  0.56947352  0.17041893    -0.54700
O312        O  0.24240358  0.58933807  0.10589973    -0.57900
In313      In  0.73872127  0.60880427  0.65934236     1.36900
C314        C  0.77785036  0.64057959  0.65865796     0.79700
O315        O  0.75497868  0.59162347  0.60631490    -0.58700
O316        O  0.71964599  0.61076302  0.60252557    -0.49600
C317        C  0.73724667  0.56385379  0.69378124     0.72400
O318        O  0.75450087  0.57982915  0.69979115    -0.44500
C319        C  0.70366691  0.63441463  0.69791751     0.73900
O320        O  0.77972312  0.61813639  0.67050098    -0.56300
O321        O  0.70000333  0.62642962  0.66482506    -0.46400
O322        O  0.75613814  0.64681278  0.64717880    -0.52800
C323        C  0.73699483  0.59893526  0.58560512     0.87300
O324        O  0.72075808  0.57067380  0.67014975    -0.54700
O325        O  0.72502217  0.62904004  0.71167249    -0.57900
In326      In  0.73729050  0.40768752  0.82024577     1.36900
C327        C  0.77723910  0.37678181  0.82048540     0.79700
O328        O  0.75137785  0.42678954  0.87337843    -0.58700
O329        O  0.71986752  0.40190957  0.87758152    -0.49600
C330        C  0.73602070  0.45219040  0.78445453     0.72400
O331        O  0.75239524  0.43548623  0.77746852    -0.44500
C332        C  0.70101602  0.38281922  0.78317563     0.77100
O333        O  0.77875811  0.39952897  0.80987034    -0.56300
O334        O  0.69729720  0.39318115  0.81473836    -0.46400
O335        O  0.75550593  0.36984195  0.83085960    -0.52800
C336        C  0.73517338  0.41632807  0.89437493     0.87300
O337        O  0.72028326  0.44633192  0.80974935    -0.54700
O338        O  0.72302993  0.38556290  0.77003998    -0.57900
In339      In  0.89769611  0.77050780  0.65925779     1.36900
C340        C  0.86658332  0.73084739  0.65890048     0.79700
O341        O  0.87647915  0.78469529  0.71014616    -0.58700
O342        O  0.88323947  0.81050309  0.66515344    -0.49600
C343        C  0.94216211  0.77106917  0.69493608     0.72400
O344        O  0.92507006  0.75518447  0.70235759    -0.44500
C345        C  0.90635202  0.77254451  0.58527139     0.77100
O346        O  0.88959929  0.72897892  0.66792897    -0.56300
O347        O  0.89216249  0.78811755  0.60197707    -0.46400
O348        O  0.85943506  0.75282777  0.65008706    -0.52800
C349        C  0.87355960  0.80673451  0.69720703     0.87300
O350        O  0.93667401  0.78670963  0.66931101    -0.54700
O351        O  0.91657443  0.75621745  0.60629344    -0.57900
In352      In  0.09742752  0.76976127  0.82351199     1.36900
C353        C  0.12874717  0.73024064  0.82313800     0.79700
O354        O  0.11868153  0.78349405  0.77236983    -0.58700
O355        O  0.11216642  0.80961333  0.81706806    -0.49600
C356        C  0.05311164  0.77088144  0.78749138     0.72400
O357        O  0.06890415  0.75322153  0.78324919    -0.44500
C358        C  0.08843395  0.77104390  0.89763220     0.77100
O359        O  0.10594690  0.72850860  0.81288428    -0.56300
O360        O  0.10334945  0.78622891  0.88156824    -0.46400
O361        O  0.13558970  0.75203627  0.83340902    -0.52800
C362        C  0.12172859  0.80560457  0.78498869     0.87300
O363        O  0.05976934  0.78799452  0.81027234    -0.54700
O364        O  0.07751085  0.75564132  0.87588416    -0.57900
In365      In  0.25542822  0.40874612  0.65881187     1.36900
C366        C  0.21631371  0.37688673  0.65844369     0.79700
O367        O  0.23855540  0.42427788  0.60501925    -0.58700
O368        O  0.27588769  0.40927223  0.60311840    -0.49600
C369        C  0.25691351  0.45353981  0.69402321     0.72400
O370        O  0.23930245  0.43781155  0.69897045    -0.44500
C371        C  0.29042051  0.38210506  0.69585697     0.77100
O372        O  0.21464326  0.39912681  0.67115603    -0.56300
O373        O  0.29343321  0.38955438  0.66237969    -0.46400
O374        O  0.23781281  0.37089888  0.64582670    -0.52800
C375        C  0.25773892  0.41909915  0.58529851     0.87300
O376        O  0.27366025  0.44663682  0.67089617    -0.54700
O377        O  0.26973955  0.38852921  0.71083103    -0.57900
In378      In  0.25770969  0.60902934  0.82245252     1.36900
C379        C  0.21842136  0.64076232  0.82249982     0.79700
O380        O  0.24068062  0.59291298  0.87580024    -0.58700
O381        O  0.27717797  0.60977832  0.87902218    -0.49600
C382        C  0.25903032  0.56414867  0.78755942     0.72400
O383        O  0.24235691  0.58058726  0.78088116    -0.44500
C384        C  0.29331775  0.63486477  0.78521439     0.77100
O385        O  0.21688349  0.61850453  0.80983164    -0.56300
O386        O  0.29617920  0.62741196  0.81872858    -0.46400
O387        O  0.23990209  0.64687217  0.83505324    -0.52800
C388        C  0.25920039  0.59916584  0.89626249     0.87300
O389        O  0.27501516  0.57037996  0.81230351    -0.54700
O390        O  0.27248426  0.62886415  0.77033678    -0.57900
In391      In  0.09704922  0.24655595  0.65755239     1.36900
C392        C  0.12755215  0.28664371  0.65775649     0.79700
O393        O  0.12003951  0.23269637  0.70681988    -0.58700
O394        O  0.11103651  0.20645451  0.66324300    -0.49600
C395        C  0.05309561  0.24503820  0.69449676     0.72400
O396        O  0.06982972  0.26142073  0.70124303    -0.44500
C397        C  0.08801415  0.24446172  0.58370361     0.77100
O398        O  0.10444029  0.28819083  0.66642714    -0.56300
O399        O  0.10227561  0.22890066  0.60027717    -0.46400
O400        O  0.13504776  0.26479425  0.64879895    -0.52800
C401        C  0.12196826  0.21043656  0.69432058     0.87300
O402        O  0.05866816  0.22943692  0.66890947    -0.54700
O403        O  0.07804859  0.26092282  0.60474269    -0.57900
In404      In  0.89804064  0.24755250  0.82305468     1.36900
C405        C  0.86655944  0.28700208  0.82189089     0.79700
O406        O  0.87877687  0.23246549  0.77099579    -0.58700
O407        O  0.87990640  0.20902698  0.81988654    -0.49600
C408        C  0.94243770  0.24510000  0.78737433     0.72400
O409        O  0.92651822  0.26238200  0.78124838    -0.44500
C410        C  0.90743031  0.24671015  0.89705801     0.77100
O411        O  0.88971149  0.28901376  0.81376482    -0.56300
O412        O  0.89487519  0.22968687  0.88060559    -0.46400
O413        O  0.85942312  0.26495615  0.83033885    -0.52800
C414        C  0.87273879  0.21171209  0.78615188     0.87300
O415        O  0.93586976  0.22903998  0.81182775    -0.54700
O416        O  0.91586114  0.26385363  0.87572696    -0.57900
C417        C  0.02940719  0.24423577  0.71449898    -0.16300
C418        C  0.00952937  0.24375319  0.73136348     0.07700
C419        C  0.98623750  0.24356144  0.75112711     0.09600
C420        C  0.96630626  0.24391026  0.76786707    -0.17200
C421        C  0.19534862  0.35950730  0.65851742    -0.16300
C422        C  0.17838897  0.34416627  0.65856806     0.07700
C423        C  0.15947051  0.32520602  0.65850416     0.09600
C424        C  0.14430742  0.30809319  0.65825039    -0.17200
C425        C  0.25796069  0.47741489  0.71365708    -0.16300
C426        C  0.25883833  0.49723245  0.73073877     0.07700
C427        C  0.25959544  0.52035087  0.75104752     0.09600
C428        C  0.25971858  0.54018600  0.76813179    -0.17200
C429        C  0.14584223  0.70903881  0.82298584    -0.16300
C430        C  0.16117900  0.69206838  0.82290742     0.07700
C431        C  0.18024669  0.67323395  0.82273502     0.09600
C432        C  0.19732110  0.65800636  0.82256471    -0.17200
C433        C  0.02929313  0.77139784  0.76771852    -0.16300
C434        C  0.00939226  0.77149885  0.75083676     0.07700
C435        C  0.98608222  0.77143639  0.73104722     0.09600
C436        C  0.96610534  0.77132520  0.71437004    -0.17200
C437        C  0.79856652  0.35982144  0.82065899    -0.16300
C438        C  0.81553030  0.34447043  0.82100829     0.07700
C439        C  0.83430750  0.32534510  0.82137406     0.09600
C440        C  0.84946196  0.30820778  0.82157026    -0.17200
C441        C  0.79880872  0.65794561  0.65849254    -0.16300
C442        C  0.81567078  0.67338293  0.65847568     0.07700
C443        C  0.83445288  0.69246439  0.65861886     0.09600
C444        C  0.84960600  0.70957978  0.65878354    -0.17200
C445        C  0.73639282  0.53971623  0.71266772    -0.16300
C446        C  0.73581515  0.51960519  0.72897264     0.07700
C447        C  0.73540106  0.49615146  0.74840049     0.09600
C448        C  0.73542334  0.47613471  0.76498901    -0.17200
C449        C  0.25936235  0.59543352  0.04458503    -0.16300
C450        C  0.25952052  0.59388873  0.01054524     0.07700
C451        C  0.25958596  0.59381148  0.97055426     0.09600
C452        C  0.25950395  0.59530789  0.93650476    -0.17200
C453        C  0.26000567  0.42222238  0.43734140    -0.16300
C454        C  0.25970628  0.42425758  0.47128455     0.07700
C455        C  0.25919443  0.42467136  0.51119899     0.09600
C456        C  0.25859919  0.42319669  0.54519832    -0.17200
C457        C  0.25897840  0.53937015  0.21414008    -0.16300
C458        C  0.25955034  0.51935051  0.23065435     0.07700
C459        C  0.26018815  0.49595825  0.25016566     0.09600
C460        C  0.26050873  0.47600992  0.26687907    -0.17200
C461        C  0.91110308  0.24688550  0.93734741    -0.16300
C462        C  0.91239392  0.24695543  0.97142449     0.07700
C463        C  0.91203544  0.24691428  0.01143197     0.09600
C464        C  0.91024621  0.24692685  0.04546272    -0.17200
C465        C  0.08461109  0.24552687  0.43577922    -0.16300
C466        C  0.08269422  0.24462806  0.46970505     0.07700
C467        C  0.08245513  0.24394707  0.50959937     0.09600
C468        C  0.08405187  0.24388386  0.54358408    -0.17200
C469        C  0.14674663  0.30945219  0.32165371    -0.16300
C470        C  0.16225786  0.32623929  0.32162808     0.07700
C471        C  0.18146093  0.34488061  0.32181349     0.09600
C472        C  0.19864621  0.35994106  0.32214703    -0.17200
C473        C  0.02907475  0.24661119  0.26748039    -0.16300
C474        C  0.00899614  0.24636235  0.25101650     0.07700
C475        C  0.98550791  0.24655643  0.23160063     0.09600
C476        C  0.96545072  0.24696992  0.21508021    -0.17200
C477        C  0.08475343  0.77010007  0.04601097    -0.16300
C478        C  0.08332267  0.77032932  0.01195717     0.07700
C479        C  0.08332329  0.77060114  0.97196664     0.09600
C480        C  0.08479130  0.77088235  0.93791641    -0.17200
C481        C  0.19713997  0.65659767  0.15854181    -0.16300
C482        C  0.18016788  0.67189351  0.15826986     0.07700
C483        C  0.16112481  0.69068894  0.15808566     0.09600
C484        C  0.14564418  0.70749607  0.15822806    -0.17200
C485        C  0.90994510  0.77294840  0.54503401    -0.16300
C486        C  0.91129056  0.77282135  0.51100305     0.07700
C487        C  0.91095596  0.77222246  0.47106917     0.09600
C488        C  0.90912890  0.77142822  0.43710310    -0.17200
C489        C  0.02844841  0.76777533  0.21621496    -0.16300
C490        C  0.00847260  0.76817154  0.23287790     0.07700
C491        C  0.98509476  0.76865972  0.25247688     0.09600
C492        C  0.96508187  0.76882855  0.26904806    -0.17200
C493        C  0.73446972  0.42000364  0.93464450    -0.16300
C494        C  0.73392572  0.42156330  0.96867985     0.07700
C495        C  0.73343197  0.42168406  0.00866945     0.09600
C496        C  0.73323046  0.42026859  0.04272554    -0.17200
C497        C  0.84823628  0.30923855  0.15871011    -0.16300
C498        C  0.83279924  0.32610681  0.15828157     0.07700
C499        C  0.81369148  0.34487109  0.15766588     0.09600
C500        C  0.79655986  0.36001012  0.15721562    -0.17200
C501        C  0.73663680  0.59480741  0.54545041    -0.16300
C502        C  0.73657682  0.59297055  0.51145113     0.07700
C503        C  0.73650906  0.59270505  0.47148040     0.09600
C504        C  0.73627831  0.59409916  0.43743454    -0.17200
C505        C  0.79668727  0.65540356  0.32197645    -0.16300
C506        C  0.81360508  0.67077998  0.32178293     0.07700
C507        C  0.83238368  0.68987249  0.32172452     0.09600
C508        C  0.84756267  0.70697352  0.32189371    -0.17200
C509        C  0.73401209  0.47497435  0.21547118    -0.16300
C510        C  0.73386941  0.49488310  0.23231769     0.07700
C511        C  0.73389945  0.51832254  0.25174960     0.09600
C512        C  0.73411979  0.53839460  0.26815932    -0.17200
C513        C  0.17979337  0.14572932  0.76649997    -0.16300
C514        C  0.16483530  0.15890660  0.74986202     0.07700
C515        C  0.14869061  0.17576711  0.73039345     0.09600
C516        C  0.13597135  0.19116633  0.71385951    -0.17200
C517        C  0.18030304  0.86945548  0.71217093    -0.16300
C518        C  0.16504551  0.85636165  0.72841332     0.07700
C519        C  0.14852251  0.83975398  0.74776615     0.09600
C520        C  0.13563150  0.82461671  0.76461563    -0.17200
C521        C  0.23390510  0.97636238  0.71298291    -0.16300
C522        C  0.23372002  0.99629679  0.72978812     0.07700
C523        C  0.23387633  0.01957930  0.74967770     0.09600
C524        C  0.23418987  0.03942414  0.76671358    -0.17200
C525        C  0.35501372  0.32121503  0.76347252    -0.16300
C526        C  0.34130631  0.33633030  0.74804201     0.07700
C527        C  0.32420043  0.35324786  0.73042190     0.09600
C528        C  0.30898142  0.36690602  0.71511614    -0.17200
C529        C  0.29613307  0.15553015  0.82411498    -0.16300
C530        C  0.31316653  0.17080095  0.82374570     0.07700
C531        C  0.33211642  0.18975081  0.82293398     0.09600
C532        C  0.34741574  0.20675564  0.82210942    -0.17200
C533        C  0.68181933  0.36826760  0.76413306    -0.16300
C534        C  0.66641044  0.35481279  0.74881552     0.07700
C535        C  0.64940173  0.33782600  0.73106895     0.09600
C536        C  0.63598452  0.32249372  0.71551251    -0.17200
C537        C  0.46412452  0.27080959  0.76397252    -0.16300
C538        C  0.48397068  0.27123758  0.74694789     0.07700
C539        C  0.50724854  0.27104672  0.72704062     0.09600
C540        C  0.52729103  0.27039162  0.71055481    -0.17200
C541        C  0.85965860  0.82591641  0.71721289    -0.16300
C542        C  0.84678526  0.84115204  0.73388631     0.07700
C543        C  0.83032367  0.85784002  0.75320497     0.09600
C544        C  0.81509484  0.87095416  0.76947199    -0.17200
C545        C  0.85812252  0.19280868  0.76670930    -0.16300
C546        C  0.84472138  0.17775586  0.75061322     0.07700
C547        C  0.82790725  0.16120456  0.73172760     0.09600
C548        C  0.81279750  0.14805148  0.71530097    -0.17200
C549        C  0.64643061  0.20740943  0.66115155    -0.16300
C550        C  0.66199656  0.19065452  0.66092472     0.07700
C551        C  0.68116777  0.17195683  0.66000586     0.09600
C552        C  0.69825467  0.15677832  0.65899589    -0.17200
C553        C  0.75983261  0.97726774  0.76768817    -0.16300
C554        C  0.76004502  0.99709346  0.75064362     0.07700
C555        C  0.76025083  0.02025159  0.73049842     0.09600
C556        C  0.76024575  0.04003782  0.71335149    -0.17200
C557        C  0.68507867  0.64909051  0.71808492    -0.16300
C558        C  0.66985420  0.66236592  0.73416049     0.07700
C559        C  0.65266091  0.67895706  0.75236259     0.09600
C560        C  0.63884018  0.69397489  0.76783522    -0.17200
C561        C  0.69795114  0.86103153  0.82409042    -0.16300
C562        C  0.68087206  0.84579818  0.82401541     0.07700
C563        C  0.66187395  0.82687096  0.82392157     0.09600
C564        C  0.64657537  0.80984637  0.82379875    -0.17200
C565        C  0.35848942  0.69525402  0.71774582    -0.16300
C566        C  0.34477920  0.68010785  0.73314237     0.07700
C567        C  0.32754641  0.66320325  0.75057825     0.09600
C568        C  0.31216058  0.64969138  0.76584756    -0.17200
C569        C  0.29747858  0.86032953  0.65905957    -0.16300
C570        C  0.31455586  0.84511251  0.65951590     0.07700
C571        C  0.33359151  0.82624555  0.65975601     0.09600
C572        C  0.34903900  0.80936913  0.65973553    -0.17200
C573        C  0.46686895  0.74641912  0.71389092    -0.16300
C574        C  0.48672122  0.74588778  0.73091294     0.07700
C575        C  0.50993354  0.74580453  0.75100825     0.09600
C576        C  0.52984003  0.74617387  0.76790056    -0.17200
C577        C  0.18376309  0.14902567  0.21603316    -0.16300
C578        C  0.16851902  0.16275779  0.23113592     0.07700
C579        C  0.15152188  0.17989749  0.24851883     0.09600
C580        C  0.13795265  0.19515426  0.26391464    -0.17200
C581        C  0.23523101  0.09510316  0.04561925    -0.16300
C582        C  0.23439021  0.09358538  0.01163218     0.07700
C583        C  0.23356605  0.09372715  0.97171797     0.09600
C584        C  0.23322214  0.09528366  0.93771416    -0.17200
C585        C  0.13569326  0.82298866  0.21716970    -0.16300
C586        C  0.14910382  0.83843817  0.23245936     0.07700
C587        C  0.16607104  0.85558189  0.24991726     0.09600
C588        C  0.18146672  0.86912660  0.26505953    -0.17200
C589        C  0.23458429  0.92057534  0.43490552    -0.16300
C590        C  0.23449151  0.92239101  0.46886999     0.07700
C591        C  0.23468000  0.92263305  0.50878014     0.09600
C592        C  0.23490633  0.92111917  0.54277855    -0.17200
C593        C  0.23668748  0.97626797  0.26518862    -0.16300
C594        C  0.23680438  0.99636559  0.24882993     0.07700
C595        C  0.23713077  0.01991547  0.22966490     0.09600
C596        C  0.23747372  0.04005914  0.21343369    -0.17200
C597        C  0.36015035  0.32581247  0.21421083    -0.16300
C598        C  0.34721718  0.34073572  0.23133201     0.07700
C599        C  0.33062389  0.35693885  0.25119409     0.09600
C600        C  0.31532790  0.36971363  0.26784454    -0.17200
C601        C  0.41052030  0.26967403  0.93382015    -0.16300
C602        C  0.41241228  0.27011307  0.96778276     0.07700
C603        C  0.41265340  0.27065705  0.00770735     0.09600
C604        C  0.41116585  0.27107718  0.04171285    -0.17200
C605        C  0.34824056  0.21130886  0.15677410    -0.16300
C606        C  0.33281280  0.19442573  0.15722388     0.07700
C607        C  0.31402490  0.17531871  0.15770626     0.09600
C608        C  0.29740297  0.15960120  0.15804881    -0.17200
C609        C  0.63553791  0.32487170  0.26712424    -0.16300
C610        C  0.64870340  0.33990836  0.25065593     0.07700
C611        C  0.66529943  0.35626233  0.23112830     0.09600
C612        C  0.68042066  0.36916597  0.21437143    -0.17200
C613        C  0.58372628  0.27067000  0.43673348    -0.16300
C614        C  0.58226935  0.27029188  0.47072027     0.07700
C615        C  0.58243232  0.26968259  0.51060571     0.09600
C616        C  0.58412921  0.26915722  0.54456740    -0.17200
C617        C  0.52911813  0.27173578  0.26503491    -0.16300
C618        C  0.50944824  0.27200988  0.24764259     0.07700
C619        C  0.48639907  0.27204233  0.22730939     0.09600
C620        C  0.46658292  0.27186193  0.21029019    -0.17200
C621        C  0.85659462  0.82173998  0.26429316    -0.16300
C622        C  0.84305367  0.83693161  0.24864661     0.07700
C623        C  0.82601952  0.85394828  0.23098417     0.09600
C624        C  0.81072148  0.86759609  0.21577127    -0.17200
C625        C  0.75756492  0.92259496  0.04641749    -0.16300
C626        C  0.75798674  0.92449009  0.01245417     0.07700
C627        C  0.75859914  0.92462653  0.97252991     0.09600
C628        C  0.75910202  0.92298983  0.93853790    -0.17200
C629        C  0.85709401  0.19372736  0.21614120    -0.16300
C630        C  0.84380919  0.17829609  0.23173737     0.07700
C631        C  0.82711191  0.16109232  0.24965841     0.09600
C632        C  0.81191092  0.14748401  0.26513012    -0.17200
C633        C  0.75905931  0.09544962  0.43536527    -0.16300
C634        C  0.75965960  0.09358656  0.46933111     0.07700
C635        C  0.76021191  0.09335128  0.50926724     0.09600
C636        C  0.76042823  0.09483205  0.54328958    -0.17200
C637        C  0.69574935  0.15751920  0.32208667    -0.16300
C638        C  0.67864237  0.17268641  0.32208684     0.07700
C639        C  0.65950276  0.19140913  0.32203007     0.09600
C640        C  0.64414536  0.20833802  0.32207351    -0.17200
C641        C  0.75681151  0.04032247  0.26625098    -0.16300
C642        C  0.75698818  0.02028333  0.24977136     0.07700
C643        C  0.75715889  0.99683188  0.23040471     0.09600
C644        C  0.75715631  0.97673168  0.21408717    -0.17200
C645        C  0.68056132  0.64581281  0.26704722    -0.16300
C646        C  0.66523015  0.65882728  0.25083020     0.07700
C647        C  0.64842898  0.67538161  0.23194151     0.09600
C648        C  0.63524311  0.69060108  0.21580980    -0.17200
C649        C  0.58464880  0.74729771  0.93720976    -0.16300
C650        C  0.58331903  0.74689815  0.97123699     0.07700
C651        C  0.58369434  0.74624314  0.01116453     0.09600
C652        C  0.58534374  0.74574706  0.04515806    -0.17200
C653        C  0.64486792  0.80719467  0.16012565    -0.16300
C654        C  0.66005326  0.82426141  0.15984145     0.07700
C655        C  0.67887331  0.84327410  0.15948813     0.09600
C656        C  0.69574433  0.85868401  0.15939352    -0.17200
C657        C  0.35725987  0.69260174  0.26637202    -0.16300
C658        C  0.34384161  0.67740139  0.25062606     0.07700
C659        C  0.32704785  0.66052043  0.23236623     0.09600
C660        C  0.31191524  0.64708904  0.21650013    -0.17200
C661        C  0.41059958  0.74571000  0.54495683    -0.16300
C662        C  0.41184151  0.74505596  0.51093408     0.07700
C663        C  0.41139668  0.74461730  0.47101012     0.09600
C664        C  0.40957307  0.74465223  0.43703167    -0.17200
C665        C  0.29860876  0.86026756  0.32223314    -0.16300
C666        C  0.31565149  0.84501358  0.32253840     0.07700
C667        C  0.33452020  0.82599317  0.32282782     0.09600
C668        C  0.34964168  0.80883810  0.32304250    -0.17200
C669        C  0.46541074  0.74603626  0.26783660    -0.16300
C670        C  0.48531777  0.74571155  0.25107855     0.07700
C671        C  0.50856628  0.74539293  0.23127980     0.09600
C672        C  0.52848123  0.74531293  0.21454063    -0.17200
loop_ 
_geom_bond_atom_site_label_1 
_geom_bond_atom_site_label_2 
_geom_bond_distance 
_geom_bond_site_symmetry_2 
_ccdc_geom_bond_type 
In1           O3   2.249       .  S
In1           O4   2.252       .  S
In1          O12   2.255       .  S
In1           O6   2.248       .  S
In1           O8   2.252       .  S
In1           O9   2.247       .  S
In1          O10   2.245       .  S
In1          O13   2.250       .  S
C2            O8   1.259       .  A
C2           O10   1.259       .  A
C2          C668   1.436       .  S
O3           C11   1.258       .  A
O4           C11   1.258       .  A
C5           O12   1.258       .  A
C5            O6   1.257       .  A
C5          C669   1.435       .  S
C7            O9   1.259       .  A
C7           O13   1.259       .  A
C7          C664   1.435       .  S
C11         C657   1.435       .  S
In14         O16   2.246       .  S
In14         O17   2.251       .  S
In14         O25   2.253       .  S
In14         O19   2.246       .  S
In14         O21   2.249       .  S
In14         O22   2.248       .  S
In14         O23   2.241       .  S
In14         O26   2.249       .  S
C15          O21   1.259       .  A
C15          O23   1.259       .  A
C15         C653   1.434       .  S
O16          C24   1.258       .  A
O17          C24   1.259       .  A
C18          O25   1.259       .  A
C18          O19   1.257       .  A
C18         C672   1.435       .  S
C20          O22   1.259       .  A
C20          O26   1.259       .  A
C20         C652   1.436       .  S
C24         C648   1.435       .  S
In27         O29   2.253       .  S
In27         O30   2.246       .  S
In27         O38   2.253       .  S
In27         O32   2.251       .  S
In27         O34   2.253       .  S
In27         O35   2.252       .  S
In27         O36   2.248       .  S
In27         O39   2.250       .  S
C28          O34   1.259       .  A
C28          O36   1.258       .  A
C28         C637   1.436       .  S
O29          C37   1.259       .  A
O30          C37   1.258       .  A
C31          O38   1.258       .  A
C31          O32   1.258       .  A
C31         C641   1.437       .  S
C33          O35   1.259       .  A
C33          O39   1.259       .  A
C33         C632   1.437       .  S
C37         C633   1.436       .  S
In40         O42   2.253       .  S
In40         O43   2.245       .  S
In40         O51   2.255       .  S
In40         O45   2.250       .  S
In40         O47   2.253       .  S
In40         O48   2.251       .  S
In40         O49   2.247       .  S
In40         O52   2.256       .  S
C41          O47   1.259       .  A
C41          O49   1.258       .  A
C41         C656   1.434       .  S
O42          C50   1.259       .  A
O43          C50   1.258       .  A
C44          O51   1.259       .  A
C44          O45   1.258       .  A
C44         C644   1.437       .  S
C46          O48   1.259       .  A
C46          O52   1.259       .  A
C46         C624   1.438       .  S
C50         C625   1.435       .  S
In53         O55   2.240       .  S
In53         O56   2.249       .  S
In53         O64   2.253       .  S
In53         O58   2.245       .  S
In53         O60   2.252       .  S
In53         O61   2.245       .  S
In53         O62   2.242       .  S
In53         O65   2.249       .  S
C54          O60   1.259       .  A
C54          O62   1.258       .  A
C54         C640   1.435       .  S
O55          C63   1.259       .  A
O56          C63   1.259       .  A
C57          O64   1.259       .  A
C57          O58   1.258       .  A
C57         C617   1.435       .  S
C59          O61   1.258       .  A
C59          O65   1.258       .  A
C59         C613   1.434       .  S
C63         C609   1.433       .  S
In66         O68   2.244       .  S
In66         O69   2.253       .  S
In66         O77   2.253       .  S
In66         O71   2.246       .  S
In66         O73   2.249       .  S
In66         O74   2.246       .  S
In66         O75   2.245       .  S
In66         O78   2.250       .  S
C67          O73   1.260       .  A
C67          O75   1.259       .  A
C67         C605   1.436       .  S
O68          C76   1.258       .  A
O69          C76   1.259       .  A
C70          O77   1.259       .  A
C70          O71   1.258       .  A
C70         C620   1.435       .  S
C72          O74   1.259       .  A
C72          O78   1.259       .  A
C72         C604   1.435       .  S
C76         C597   1.434       .  S
In79         O81   2.249       .  S
In79         O82   2.246       .  S
In79         O90   2.254       .  S
In79         O84   2.252       .  S
In79         O86   2.256       .  S
In79         O87   2.252       .  S
In79         O88   2.246       .  S
In79         O91   2.249       .  S
C80          O86   1.260       .  A
C80          O88   1.258       .  A
C80         C665   1.437       .  S
O81          C89   1.259       .  A
O82          C89   1.259       .  A
C83          O90   1.259       .  A
C83          O84   1.259       .  A
C83         C593   1.438       .  S
C85          O87   1.259       .  A
C85          O91   1.259       .  A
C85         C588   1.437       .  S
C89         C589   1.435       .  S
In92         O94   2.256       .  S
In92         O95   2.243       .  S
In92        O103   2.256       .  S
In92         O97   2.255       .  S
In92         O99   2.256       .  S
In92        O100   2.249       .  S
In92        O101   2.248       .  S
In92        O104   2.254       .  S
C93          O99   1.260       .  A
C93         O101   1.258       .  A
C93         C608   1.437       .  S
O94         C102   1.260       .  A
O95         C102   1.258       .  A
C96         O103   1.258       .  A
C96          O97   1.258       .  A
C96         C596   1.438       .  S
C98         O100   1.258       .  A
C98         O104   1.259       .  A
C98         C577   1.437       .  S
C102        C581   1.435       .  S
In105       O107   2.257       .  S
In105       O108   2.246       .  S
In105       O116   2.256       .  S
In105       O110   2.252       .  S
In105       O112   2.257       .  S
In105       O113   2.247       .  S
In105       O114   2.248       .  S
In105       O117   2.253       .  S
C106        O112   1.260       .  A
C106        O114   1.258       .  A
C106        C572   1.437       .  S
O107        C115   1.259       .  A
O108        C115   1.257       .  A
C109        O116   1.259       .  A
C109        O110   1.258       .  A
C109        C573   1.439       .  S
C111        O113   1.259       .  A
C111        O117   1.260       .  A
C111        C565   1.437       .  S
C115        C661   1.436       .  S
In118       O120   2.256       .  S
In118       O121   2.244       .  S
In118       O129   2.257       .  S
In118       O123   2.252       .  S
In118       O125   2.258       .  S
In118       O126   2.254       .  S
In118       O127   2.249       .  S
In118       O130   2.253       .  S
C119        O125   1.259       .  A
C119        O127   1.258       .  A
C119        C564   1.438       .  S
O120        C128   1.259       .  A
O121        C128   1.258       .  A
C122        O129   1.259       .  A
C122        O123   1.258       .  A
C122        C576   1.439       .  S
C124        O126   1.259       .  A
C124        O130   1.259       .  A
C124        C560   1.438       .  S
C128        C649   1.436       .  S
In131       O133   2.249       .  S
In131       O134   2.252       .  S
In131       O142   2.258       .  S
In131       O136   2.247       .  S
In131       O138   2.249       .  S
In131       O139   2.250       .  S
In131       O140   2.247       .  S
In131       O143   2.254       .  S
C132        O138   1.259       .  A
C132        O140   1.259       .  A
C132        C552   1.435       .  S
O133        C141   1.258       .  A
O134        C141   1.258       .  A
C135        O142   1.259       .  A
C135        O136   1.257       .  A
C135        C556   1.437       .  S
C137        O139   1.258       .  A
C137        O143   1.259       .  A
C137        C636   1.436       .  S
C141        C548   1.435       .  S
In144       O146   2.246       .  S
In144       O147   2.255       .  S
In144       O155   2.255       .  S
In144       O149   2.250       .  S
In144       O151   2.253       .  S
In144       O152   2.249       .  S
In144       O153   2.249       .  S
In144       O156   2.251       .  S
C145        O151   1.259       .  A
C145        O153   1.259       .  A
C145        C561   1.437       .  S
O146        C154   1.258       .  A
O147        C154   1.259       .  A
C148        O155   1.259       .  A
C148        O149   1.258       .  A
C148        C553   1.437       .  S
C150        O152   1.259       .  A
C150        O156   1.258       .  A
C150        C628   1.436       .  S
C154        C544   1.436       .  S
In157       O159   2.253       .  S
In157       O160   2.244       .  S
In157       O168   2.257       .  S
In157       O162   2.251       .  S
In157       O164   2.258       .  S
In157       O165   2.249       .  S
In157       O166   2.248       .  S
In157       O169   2.253       .  S
C158        O164   1.259       .  A
C158        O166   1.258       .  A
C158        C549   1.436       .  S
O159        C167   1.259       .  A
O160        C167   1.258       .  A
C161        O168   1.258       .  A
C161        O162   1.258       .  A
C161        C540   1.438       .  S
C163        O165   1.259       .  A
C163        O169   1.260       .  A
C163        C536   1.438       .  S
C167        C616   1.434       .  S
In170       O172   2.254       .  S
In170       O173   2.246       .  S
In170       O181   2.258       .  S
In170       O175   2.252       .  S
In170       O177   2.256       .  S
In170       O178   2.248       .  S
In170       O179   2.248       .  S
In170       O182   2.251       .  S
C171        O177   1.260       .  A
C171        O179   1.258       .  A
C171        C532   1.437       .  S
O172        C180   1.259       .  A
O173        C180   1.258       .  A
C174        O181   1.258       .  A
C174        O175   1.258       .  A
C174        C537   1.439       .  S
C176        O178   1.259       .  A
C176        O182   1.259       .  A
C176        C525   1.437       .  S
C180        C601   1.436       .  S
In183       O185   2.246       .  S
In183       O186   2.252       .  S
In183       O194   2.257       .  S
In183       O188   2.250       .  S
In183       O190   2.255       .  S
In183       O191   2.246       .  S
In183       O192   2.247       .  S
In183       O195   2.254       .  S
C184        O190   1.259       .  A
C184        O192   1.258       .  A
C184        C569   1.436       .  S
O185        C193   1.259       .  A
O186        C193   1.259       .  A
C187        O194   1.259       .  A
C187        O188   1.258       .  A
C187        C521   1.438       .  S
C189        O191   1.258       .  A
C189        O195   1.259       .  A
C189        C592   1.435       .  S
C193        C517   1.436       .  S
In196       O198   2.244       .  S
In196       O199   2.253       .  S
In196       O207   2.256       .  S
In196       O201   2.252       .  S
In196       O203   2.252       .  S
In196       O204   2.248       .  S
In196       O205   2.247       .  S
In196       O208   2.249       .  S
C197        O203   1.260       .  A
C197        O205   1.259       .  A
C197        C529   1.437       .  S
O198        C206   1.258       .  A
O199        C206   1.259       .  A
C200        O207   1.259       .  A
C200        O201   1.258       .  A
C200        C524   1.438       .  S
C202        O204   1.259       .  A
C202        O208   1.259       .  A
C202        C584   1.435       .  S
C206        C513   1.434       .  S
In209       O211   2.248       .  S
In209       O212   2.253       .  S
In209       O220   2.256       .  S
In209       O214   2.250       .  S
In209       O216   2.251       .  S
In209       O217   2.248       .  S
In209       O218   2.245       .  S
In209       O221   2.254       .  S
C210        O216   1.259       .  A
C210        O218   1.258       .  A
C210        C505   1.435       .  S
O211        C219   1.258       .  A
O212        C219   1.259       .  A
C213        O220   1.259       .  A
C213        O214   1.258       .  A
C213        C512   1.438       .  S
C215        O217   1.259       .  A
C215        O221   1.259       .  A
C215        C504   1.437       .  S
C219        C645   1.435       .  S
In222       O224   2.241       .  S
In222       O225   2.249       .  S
In222       O233   2.253       .  S
In222       O227   2.251       .  S
In222       O229   2.251       .  S
In222       O230   2.250       .  S
In222       O231   2.244       .  S
In222       O234   2.255       .  S
C223        O229   1.260       .  A
C223        O231   1.258       .  A
C223        C500   1.435       .  S
O224        C232   1.259       .  A
O225        C232   1.260       .  A
C226        O233   1.259       .  A
C226        O227   1.258       .  A
C226        C509   1.438       .  S
C228        O230   1.258       .  A
C228        O234   1.258       .  A
C228        C496   1.438       .  S
C232        C612   1.433       .  S
In235       O237   2.257       .  S
In235       O238   2.249       .  S
In235       O246   2.258       .  S
In235       O240   2.249       .  S
In235       O242   2.254       .  S
In235       O243   2.250       .  S
In235       O244   2.249       .  S
In235       O247   2.254       .  S
C236        O242   1.258       .  A
C236        O244   1.258       .  A
C236        C508   1.436       .  S
O237        C245   1.258       .  A
O238        C245   1.257       .  A
C239        O246   1.259       .  A
C239        O240   1.257       .  A
C239        C492   1.438       .  S
C241        O243   1.258       .  A
C241        O247   1.259       .  A
C241        C621   1.438       .  S
C245        C488   1.436       .  S
In248       O250   2.252       .  S
In248       O251   2.248       .  S
In248       O259   2.253       .  S
In248       O253   2.255       .  S
In248       O255   2.251       .  S
In248       O256   2.253       .  S
In248       O257   2.242       .  S
In248       O260   2.252       .  S
C249        O255   1.260       .  A
C249        O257   1.259       .  A
C249        C484   1.434       .  S
O250        C258   1.259       .  A
O251        C258   1.259       .  A
C252        O259   1.258       .  A
C252        O253   1.258       .  A
C252        C489   1.438       .  S
C254        O256   1.259       .  A
C254        O260   1.258       .  A
C254        C585   1.437       .  S
C258        C477   1.437       .  S
In261       O263   2.255       .  S
In261       O264   2.245       .  S
In261       O272   2.258       .  S
In261       O266   2.253       .  S
In261       O268   2.254       .  S
In261       O269   2.248       .  S
In261       O270   2.245       .  S
In261       O273   2.252       .  S
C262        O268   1.259       .  A
C262        O270   1.258       .  A
C262        C469   1.435       .  S
O263        C271   1.259       .  A
O264        C271   1.258       .  A
C265        O272   1.259       .  A
C265        O266   1.258       .  A
C265        C473   1.439       .  S
C267        O269   1.259       .  A
C267        O273   1.259       .  A
C267        C580   1.437       .  S
C271        C465   1.435       .  S
In274       O276   2.255       .  S
In274       O277   2.250       .  S
In274       O285   2.257       .  S
In274       O279   2.256       .  S
In274       O281   2.255       .  S
In274       O282   2.253       .  S
In274       O283   2.246       .  S
In274       O286   2.254       .  S
C275        O281   1.260       .  A
C275        O283   1.258       .  A
C275        C497   1.436       .  S
O276        C284   1.259       .  A
O277        C284   1.259       .  A
C278        O285   1.258       .  A
C278        O279   1.258       .  A
C278        C476   1.440       .  S
C280        O282   1.259       .  A
C280        O286   1.258       .  A
C280        C629   1.438       .  S
C284        C464   1.438       .  S
In287       O289   2.244       .  S
In287       O290   2.251       .  S
In287       O298   2.255       .  S
In287       O292   2.246       .  S
In287       O294   2.249       .  S
In287       O295   2.248       .  S
In287       O296   2.246       .  S
In287       O299   2.252       .  S
C288        O294   1.258       .  A
C288        O296   1.258       .  A
C288        C472   1.434       .  S
O289        C297   1.258       .  A
O290        C297   1.259       .  A
C291        O298   1.259       .  A
C291        O292   1.258       .  A
C291        C460   1.437       .  S
C293        O295   1.258       .  A
C293        O299   1.258       .  A
C293        C453   1.435       .  S
C297        C600   1.434       .  S
In300       O302   2.248       .  S
In300       O303   2.249       .  S
In300       O311   2.253       .  S
In300       O305   2.252       .  S
In300       O307   2.250       .  S
In300       O308   2.248       .  S
In300       O309   2.243       .  S
In300       O312   2.255       .  S
C301        O307   1.260       .  A
C301        O309   1.258       .  A
C301        C481   1.434       .  S
O302        C310   1.259       .  A
O303        C310   1.259       .  A
C304        O311   1.258       .  A
C304        O305   1.258       .  A
C304        C457   1.437       .  S
C306        O308   1.258       .  A
C306        O312   1.259       .  A
C306        C449   1.437       .  S
C310        C660   1.435       .  S
In313       O315   2.252       .  S
In313       O316   2.249       .  S
In313       O324   2.255       .  S
In313       O318   2.252       .  S
In313       O320   2.252       .  S
In313       O321   2.252       .  S
In313       O322   2.246       .  S
In313       O325   2.255       .  S
C314        O320   1.259       .  A
C314        O322   1.258       .  A
C314        C441   1.435       .  S
O315        C323   1.259       .  A
O316        C323   1.259       .  A
C317        O324   1.258       .  A
C317        O318   1.258       .  A
C317        C445   1.438       .  S
C319        O321   1.259       .  A
C319        O325   1.259       .  A
C319        C557   1.438       .  S
C323        C501   1.437       .  S
In326       O328   2.258       .  S
In326       O329   2.247       .  S
In326       O337   2.257       .  S
In326       O331   2.252       .  S
In326       O333   2.259       .  S
In326       O334   2.252       .  S
In326       O335   2.247       .  S
In326       O338   2.254       .  S
C327        O333   1.259       .  A
C327        O335   1.258       .  A
C327        C437   1.437       .  S
O328        C336   1.259       .  A
O329        C336   1.258       .  A
C330        O337   1.259       .  A
C330        O331   1.258       .  A
C330        C448   1.438       .  S
C332        O334   1.258       .  A
C332        O338   1.259       .  A
C332        C533   1.438       .  S
C336        C493   1.438       .  S
In339       O341   2.248       .  S
In339       O342   2.252       .  S
In339       O350   2.254       .  S
In339       O344   2.249       .  S
In339       O346   2.252       .  S
In339       O347   2.247       .  S
In339       O348   2.246       .  S
In339       O351   2.251       .  S
C340        O346   1.259       .  A
C340        O348   1.258       .  A
C340        C444   1.435       .  S
O341        C349   1.258       .  A
O342        C349   1.259       .  A
C343        O350   1.259       .  A
C343        O344   1.258       .  A
C343        C436   1.438       .  S
C345        O347   1.258       .  A
C345        O351   1.259       .  A
C345        C485   1.436       .  S
C349        C541   1.436       .  S
In352       O354   2.248       .  S
In352       O355   2.252       .  S
In352       O363   2.256       .  S
In352       O357   2.247       .  S
In352       O359   2.253       .  S
In352       O360   2.251       .  S
In352       O361   2.246       .  S
In352       O364   2.256       .  S
C353        O359   1.259       .  A
C353        O361   1.258       .  A
C353        C429   1.436       .  S
O354        C362   1.259       .  A
O355        C362   1.259       .  A
C356        O363   1.260       .  A
C356        O357   1.258       .  A
C356        C433   1.438       .  S
C358        O360   1.258       .  A
C358        O364   1.258       .  A
C358        C480   1.438       .  S
C362        C520   1.436       .  S
In365       O367   2.254       .  S
In365       O368   2.246       .  S
In365       O376   2.258       .  S
In365       O370   2.256       .  S
In365       O372   2.253       .  S
In365       O373   2.249       .  S
In365       O374   2.249       .  S
In365       O377   2.256       .  S
C366        O372   1.259       .  A
C366        O374   1.259       .  A
C366        C421   1.436       .  S
O367        C375   1.259       .  A
O368        C375   1.258       .  A
C369        O376   1.258       .  A
C369        O370   1.257       .  A
C369        C425   1.439       .  S
C371        O373   1.257       .  A
C371        O377   1.259       .  A
C371        C528   1.437       .  S
C375        C456   1.435       .  S
In378       O380   2.256       .  S
In378       O381   2.249       .  S
In378       O389   2.262       .  S
In378       O383   2.251       .  S
In378       O385   2.255       .  S
In378       O386   2.252       .  S
In378       O387   2.250       .  S
In378       O390   2.258       .  S
C379        O385   1.259       .  A
C379        O387   1.259       .  A
C379        C432   1.437       .  S
O380        C388   1.259       .  A
O381        C388   1.258       .  A
C382        O389   1.259       .  A
C382        O383   1.257       .  A
C382        C428   1.439       .  S
C384        O386   1.258       .  A
C384        O390   1.259       .  A
C384        C568   1.438       .  S
C388        C452   1.438       .  S
In391       O393   2.245       .  S
In391       O394   2.249       .  S
In391       O402   2.252       .  S
In391       O396   2.250       .  S
In391       O398   2.252       .  S
In391       O399   2.246       .  S
In391       O400   2.244       .  S
In391       O403   2.251       .  S
C392        O398   1.259       .  A
C392        O400   1.259       .  A
C392        C424   1.435       .  S
O393        C401   1.259       .  A
O394        C401   1.259       .  A
C395        O402   1.258       .  A
C395        O396   1.258       .  A
C395        C417   1.436       .  S
C397        O399   1.258       .  A
C397        O403   1.258       .  A
C397        C468   1.434       .  S
C401        C516   1.434       .  S
In404       O406   2.248       .  S
In404       O407   2.248       .  S
In404       O415   2.256       .  S
In404       O409   2.248       .  S
In404       O411   2.254       .  S
In404       O412   2.249       .  S
In404       O413   2.249       .  S
In404       O416   2.256       .  S
C405        O411   1.259       .  A
C405        O413   1.258       .  A
C405        C440   1.437       .  S
O406        C414   1.260       .  A
O407        C414   1.259       .  A
C408        O415   1.259       .  A
C408        O409   1.258       .  A
C408        C420   1.437       .  S
C410        O412   1.258       .  A
C410        O416   1.259       .  A
C410        C461   1.438       .  S
C414        C545   1.435       .  S
C417        C418   1.206       .  T
C418        C419   1.413   1_455  S
C419        C420   1.207       .  T
C421        C422   1.206       .  T
C422        C423   1.412       .  S
C423        C424   1.206       .  T
C425        C426   1.208       .  T
C426        C427   1.416       .  S
C427        C428   1.208       .  T
C429        C430   1.206       .  T
C430        C431   1.413       .  S
C431        C432   1.207       .  T
C433        C434   1.207       .  T
C434        C435   1.414   1_455  S
C435        C436   1.207       .  T
C437        C438   1.207       .  T
C438        C439   1.414       .  S
C439        C440   1.206       .  T
C441        C442   1.206       .  T
C442        C443   1.412       .  S
C443        C444   1.205       .  T
C445        C446   1.208       .  T
C446        C447   1.415       .  S
C447        C448   1.208       .  T
C449        C450   1.207       .  T
C450        C451   1.414   1_554  S
C451        C452   1.207       .  T
C453        C454   1.205       .  T
C454        C455   1.412       .  S
C455        C456   1.205       .  T
C457        C458   1.207       .  T
C458        C459   1.414       .  S
C459        C460   1.207       .  T
C461        C462   1.207       .  T
C462        C463   1.415   1_556  S
C463        C464   1.207       .  T
C465        C466   1.205       .  T
C466        C467   1.411       .  S
C467        C468   1.205       .  T
C469        C470   1.205       .  T
C470        C471   1.411       .  S
C471        C472   1.205       .  T
C473        C474   1.208       .  T
C474        C475   1.416   1_455  S
C475        C476   1.208       .  T
C477        C478   1.207       .  T
C478        C479   1.414   1_554  S
C479        C480   1.207       .  T
C481        C482   1.205       .  T
C482        C483   1.411       .  S
C483        C484   1.205       .  T
C485        C486   1.206       .  T
C486        C487   1.413       .  S
C487        C488   1.206       .  T
C489        C490   1.207       .  T
C490        C491   1.415   1_455  S
C491        C492   1.207       .  T
C493        C494   1.207       .  T
C494        C495   1.414   1_556  S
C495        C496   1.207       .  T
C497        C498   1.206       .  T
C498        C499   1.412       .  S
C499        C500   1.206       .  T
C501        C502   1.206       .  T
C502        C503   1.414       .  S
C503        C504   1.206       .  T
C505        C506   1.206       .  T
C506        C507   1.412       .  S
C507        C508   1.206       .  T
C509        C510   1.207       .  T
C510        C511   1.414       .  S
C511        C512   1.207       .  T
C513        C514   1.205       .  T
C514        C515   1.410       .  S
C515        C516   1.205       .  T
C517        C518   1.206       .  T
C518        C519   1.412       .  S
C519        C520   1.206       .  T
C521        C522   1.208       .  T
C522        C523   1.415   1_565  S
C523        C524   1.208       .  T
C525        C526   1.206       .  T
C526        C527   1.413       .  S
C527        C528   1.207       .  T
C529        C530   1.206       .  T
C530        C531   1.414       .  S
C531        C532   1.207       .  T
C533        C534   1.207       .  T
C534        C535   1.414       .  S
C535        C536   1.207       .  T
C537        C538   1.208       .  T
C538        C539   1.415       .  S
C539        C540   1.208       .  T
C541        C542   1.206       .  T
C542        C543   1.413       .  S
C543        C544   1.206       .  T
C545        C546   1.206       .  T
C546        C547   1.412       .  S
C547        C548   1.206       .  T
C549        C550   1.206       .  T
C550        C551   1.413       .  S
C551        C552   1.206       .  T
C553        C554   1.207       .  T
C554        C555   1.414   1_565  S
C555        C556   1.207       .  T
C557        C558   1.208       .  T
C558        C559   1.415       .  S
C559        C560   1.208       .  T
C561        C562   1.207       .  T
C562        C563   1.414       .  S
C563        C564   1.207       .  T
C565        C566   1.207       .  T
C566        C567   1.414       .  S
C567        C568   1.207       .  T
C569        C570   1.206       .  T
C570        C571   1.413       .  S
C571        C572   1.207       .  T
C573        C574   1.208       .  T
C574        C575   1.415       .  S
C575        C576   1.208       .  T
C577        C578   1.207       .  T
C578        C579   1.414       .  S
C579        C580   1.207       .  T
C581        C582   1.205       .  T
C582        C583   1.412   1_554  S
C583        C584   1.205       .  T
C585        C586   1.207       .  T
C586        C587   1.414       .  S
C587        C588   1.207       .  T
C589        C590   1.205       .  T
C590        C591   1.412       .  S
C591        C592   1.205       .  T
C593        C594   1.207       .  T
C594        C595   1.415   1_565  S
C595        C596   1.208       .  T
C597        C598   1.205       .  T
C598        C599   1.411       .  S
C599        C600   1.205       .  T
C601        C602   1.205       .  T
C602        C603   1.412   1_556  S
C603        C604   1.205       .  T
C605        C606   1.206       .  T
C606        C607   1.413       .  S
C607        C608   1.206       .  T
C609        C610   1.204       .  T
C610        C611   1.409       .  S
C611        C612   1.204       .  T
C613        C614   1.205       .  T
C614        C615   1.411       .  S
C615        C616   1.205       .  T
C617        C618   1.206       .  T
C618        C619   1.412       .  S
C619        C620   1.206       .  T
C621        C622   1.207       .  T
C622        C623   1.415       .  S
C623        C624   1.208       .  T
C625        C626   1.205       .  T
C626        C627   1.412   1_554  S
C627        C628   1.206       .  T
C629        C630   1.207       .  T
C630        C631   1.414       .  S
C631        C632   1.207       .  T
C633        C634   1.206       .  T
C634        C635   1.413       .  S
C635        C636   1.206       .  T
C637        C638   1.206       .  T
C638        C639   1.412       .  S
C639        C640   1.205       .  T
C641        C642   1.207       .  T
C642        C643   1.414   1_545  S
C643        C644   1.207       .  T
C645        C646   1.206       .  T
C646        C647   1.412       .  S
C647        C648   1.205       .  T
C649        C650   1.206       .  T
C650        C651   1.413   1_556  S
C651        C652   1.206       .  T
C653        C654   1.205       .  T
C654        C655   1.411       .  S
C655        C656   1.205       .  T
C657        C658   1.206       .  T
C658        C659   1.412       .  S
C659        C660   1.206       .  T
C661        C662   1.206       .  T
C662        C663   1.412       .  S
C663        C664   1.205       .  T
C665        C666   1.206       .  T
C666        C667   1.413       .  S
C667        C668   1.206       .  T
C669        C670   1.206       .  T
C670        C671   1.412       .  S
C671        C672   1.206       .  T
