geometry optimzed in LAMMPS
_audit_creation_date              2020-12-01 
_audit_creation_method            'lammps2cif' 
_symmetry_space_group_name_H-M    'P1' 
_symmetry_Int_Tables_number       1 
_symmetry_cell_setting            triclinic 
loop_ 
_symmetry_equiv_pos_as_xyz 
  x,y,z 
_cell_length_a                    66.58215388 
_cell_length_b                    67.01013017138769 
_cell_length_c                    27.210146923536747 
_cell_angle_alpha                 90.19010168334833 
_cell_angle_beta                  89.21069017805337 
_cell_angle_gamma                 123.47645263063977 
loop_ 
_atom_site_label 
_atom_site_type_symbol 
_atom_site_fract_x 
_atom_site_fract_y 
_atom_site_fract_z 
_atom_site_charge 
O1          O  0.64295461  0.87024508  0.32284191    -0.56800
C2          C  0.62946614  0.92059354  0.36919412     0.75800
O3          O  0.67851515  0.91418734  0.44884224    -0.58000
C4          C  0.65890834  0.86583523  0.33032274     0.75800
C5          C  0.69830761  0.94553583  0.29701398     0.78200
Cd6        Cd  0.66385306  0.90835999  0.36346663     1.37500
O7          O  0.62617801  0.90452403  0.33922953    -0.56800
O8          O  0.67844796  0.92730018  0.28376787    -0.55600
C9          C  0.65818533  0.89745165  0.46628029     0.78100
O10         O  0.70326656  0.94644517  0.34227888    -0.58000
O11         O  0.64852117  0.93087390  0.39398591    -0.56500
O12         O  0.67792676  0.88195198  0.35144092    -0.56400
O13         O  0.64174057  0.88541991  0.43550464    -0.55600
O14         O  0.76325289  0.09809277  0.14499720    -0.56800
C15         C  0.69803668  0.04441714  0.08373903     0.75800
O16         O  0.75954841  0.06221207  0.01197680    -0.58000
C17         C  0.78505164  0.10658876  0.13297331     0.75800
C18         C  0.74121498  0.02321832  0.15859877     0.78200
Cd19       Cd  0.74687594  0.06151161  0.09894384     1.37500
O20         O  0.70887793  0.05863538  0.11925981    -0.56800
O21         O  0.74154281  0.04092231  0.17604764    -0.55600
C22         C  0.75456823  0.07734476  0.99938526     0.78100
O23         O  0.74544287  0.02378458  0.11272471    -0.58000
O24         O  0.70929699  0.03730884  0.05971488    -0.56500
O25         O  0.78930828  0.09276908  0.10991342    -0.56400
O26         O  0.74827877  0.08573017  0.03349580    -0.55600
O27         O  0.87798481  0.21678499  0.13326298    -0.56800
C28         C  0.94530496  0.27806410  0.18116794     0.75800
O29         O  0.88992416  0.28837159  0.15581682    -0.58000
C30         C  0.85679804  0.20789403  0.15034141     0.75800
C31         C  0.89381307  0.24481768  0.27606377     0.78200
Cd32       Cd  0.89492327  0.25487180  0.17406669     1.37500
O33         O  0.93374494  0.25810517  0.15891142    -0.56800
O34         O  0.90074342  0.23677708  0.24252895    -0.55600
C35         C  0.89427836  0.28865909  0.11005129     0.78100
O36         O  0.88577680  0.25730534  0.26224273    -0.58000
O37         O  0.93358522  0.28704344  0.19385015    -0.56500
O38         O  0.85295490  0.22187038  0.17392166    -0.56400
O39         O  0.89677764  0.27226715  0.09453418    -0.55600
O40         O  0.99125662  0.44126709  0.95518777    -0.56800
C41         C  0.99998091  0.38488524  0.92651782     0.75800
O42         O  0.93053252  0.36544636  0.92718648    -0.58000
C43         C  0.97740512  0.44739660  0.94030973     0.75800
C44         C  0.98302801  0.41335897  0.81132624     0.78200
Cd45       Cd  0.97091341  0.40316356  0.91370524     1.37500
O46         O  0.00793297  0.40608848  0.94042501    -0.56800
O47         O  0.99855783  0.42151599  0.84472360    -0.55600
C48         C  0.93247491  0.36623757  0.97372074     0.78100
O49         O  0.96108394  0.40006227  0.82535228    -0.58000
O50         O  0.97902388  0.37289393  0.90904227    -0.56500
O51         O  0.95928915  0.43206328  0.91573659    -0.56400
O52         O  0.95051536  0.38512765  0.99121608    -0.55600
O53         O  0.10112373  0.76583989  0.79217035    -0.56800
C54         C  0.03691644  0.70586703  0.74195950     0.75800
O55         O  0.09804740  0.72861329  0.65679765    -0.58000
C56         C  0.12313294  0.77559944  0.78028674     0.75800
C57         C  0.08812033  0.69740117  0.81326448     0.78200
Cd58       Cd  0.08741996  0.72967726  0.74594650     1.37500
O59         O  0.04946656  0.72657257  0.76072507    -0.56800
O60         O  0.08558714  0.71397039  0.82691872    -0.55600
C61         C  0.09048574  0.74165356  0.64404029     0.78100
O62         O  0.09269826  0.69691739  0.76781122    -0.58000
O63         O  0.04774969  0.69602723  0.72872581    -0.56500
O64         O  0.12854983  0.76329514  0.75466509    -0.56400
O65         O  0.08333822  0.74912258  0.67830425    -0.55600
O66         O  0.98674964  0.54876800  0.97260866    -0.56800
C67         C  0.98250647  0.60640546  0.03706386     0.75800
O68         O  0.02105519  0.58576507  0.10529895    -0.58000
C69         C  0.00143394  0.54271665  0.98128008     0.75800
C70         C  0.04368479  0.62039090  0.95101545     0.78200
Cd71       Cd  0.00890620  0.58545300  0.01914518     1.37500
O72         O  0.97266335  0.58703981  0.01270912    -0.56800
O73         O  0.02243088  0.60410517  0.93908377    -0.55600
C74         C  0.99951229  0.56962870  0.11841870     0.78100
O75         O  0.04958804  0.62018436  0.99528065    -0.58000
O76         O  0.00412602  0.61566042  0.04976858    -0.56500
O77         O  0.02018736  0.55739705  0.00512960    -0.56400
O78         O  0.98395209  0.56069345  0.08494243    -0.55600
O79         O  0.21553137  0.88589977  0.80894275    -0.56800
C80         C  0.27704516  0.95093366  0.87323131     0.75800
O81         O  0.21728083  0.95137187  0.83579581    -0.58000
C82         C  0.19347310  0.87502708  0.82189161     0.75800
C83         C  0.22344445  0.90648393  0.95608321     0.78200
Cd84       Cd  0.22706714  0.92161131  0.85705859     1.37500
O85         O  0.26826747  0.93223388  0.84689486    -0.56800
O86         O  0.23337197  0.90207851  0.92161471    -0.55600
C87         C  0.22322435  0.95224225  0.79073892     0.78100
O88         O  0.21324626  0.91726999  0.94434541    -0.58000
O89         O  0.26287280  0.95693312  0.88720700    -0.56500
O90         O  0.18729799  0.88656812  0.84805261    -0.56400
O91         O  0.22919167  0.93805722  0.77726759    -0.55600
O92         O  0.31143151  0.09811078  0.62453269    -0.56800
C93         C  0.32178881  0.04496143  0.56917150     0.75800
O94         O  0.25076665  0.02324280  0.59955545    -0.58000
C95         C  0.29683488  0.10405811  0.61437567     0.75800
C96         C  0.29869875  0.07551534  0.47778446     0.78200
Cd97       Cd  0.29037069  0.06110684  0.57864572     1.37500
O98         O  0.32807009  0.06321843  0.59534526    -0.56800
O99         O  0.31432781  0.08548563  0.51093540    -0.55600
C100        C  0.25582699  0.02450649  0.64488464     0.78100
O101        O  0.27757594  0.05873663  0.49168495    -0.58000
O102        O  0.30105948  0.03442750  0.55073269    -0.56500
O103        O  0.27829137  0.08907351  0.59033258    -0.56400
O104        O  0.27545601  0.04303052  0.65823760    -0.55600
O105        O  0.29894834  0.25040387  0.67722456    -0.56800
C106        C  0.32310297  0.20015783  0.65742361     0.75800
O107        O  0.37493844  0.27896384  0.66175743    -0.58000
C108        C  0.30983949  0.26962169  0.70226869     0.75800
C109        C  0.32210669  0.23148379  0.78436375     0.78200
Cd110      Cd  0.33341582  0.24562388  0.68440037     1.37500
O111        O  0.31029656  0.20757315  0.64216460    -0.56800
O112        O  0.30667301  0.22386191  0.75066202    -0.55600
C113        C  0.37027929  0.27995959  0.61690928     0.78100
O114        O  0.34420531  0.24547507  0.77138574    -0.58000
O115        O  0.34173425  0.21485252  0.68156367    -0.56500
O116        O  0.33121611  0.27748917  0.71477555    -0.56400
O117        O  0.34921516  0.26402953  0.60292354    -0.55600
O118        O  0.43489237  0.43362372  0.47547976    -0.56800
C119        C  0.37088217  0.37377569  0.41303867     0.75800
O120        O  0.43199166  0.39675505  0.34008336    -0.58000
C121        C  0.45687447  0.44368263  0.46281756     0.75800
C122        C  0.41987026  0.36224025  0.49187960     0.78200
Cd123      Cd  0.42110177  0.39725829  0.42846303     1.37500
O124        O  0.38153577  0.39159660  0.44186066    -0.56800
O125        O  0.41673095  0.37813239  0.50771406    -0.55600
C126        C  0.42532143  0.41057119  0.32750575     0.78100
O127        O  0.42619370  0.36389922  0.44692471    -0.58000
O128        O  0.38320614  0.36608757  0.39634317    -0.56500
O129        O  0.46228106  0.43131624  0.43735028    -0.56400
O130        O  0.41934229  0.41908081  0.36192681    -0.55600
O131        O  0.65443748  0.76733836  0.29330344    -0.56800
C132        C  0.66069139  0.71085303  0.23168001     0.75800
O133        O  0.59240893  0.69430574  0.27465330    -0.58000
C134        C  0.63930954  0.77272770  0.28385659     0.75800
C135        C  0.64144863  0.74531408  0.15046016     0.78200
Cd136      Cd  0.63251488  0.72989973  0.24954367     1.37500
O137        O  0.66936779  0.72957585  0.25784147    -0.56800
O138        O  0.65693945  0.75477171  0.18398972    -0.55600
C139        C  0.59840216  0.69549059  0.31936838     0.78100
O140        O  0.62000949  0.72881711  0.16345674    -0.58000
O141        O  0.63916778  0.70111231  0.21779815    -0.56500
O142        O  0.62052468  0.75740333  0.26084409    -0.56400
O143        O  0.61931035  0.71279868  0.33071393    -0.55600
O144        O  0.54983928  0.55423025  0.48707998    -0.56800
C145        C  0.61319186  0.61248160  0.53774032     0.75800
O146        O  0.55886205  0.62542936  0.51496059    -0.58000
C147        C  0.52791570  0.54384954  0.50017082     0.75800
C148        C  0.55985261  0.57797021  0.63308321     0.78200
Cd149      Cd  0.56304999  0.59090047  0.53210610     1.37500
O150        O  0.60142584  0.59653805  0.50554591    -0.56800
O151        O  0.56789661  0.57145627  0.59868087    -0.55600
C152        C  0.56164410  0.62444223  0.46885367     0.78100
O153        O  0.55121713  0.59014038  0.62080880    -0.58000
O154        O  0.60205561  0.61948811  0.56266160    -0.56500
O155        O  0.52222973  0.55610810  0.52516941    -0.56400
O156        O  0.56319400  0.60744765  0.45394634    -0.55600
O157        O  0.88240283  0.21880533  0.62208218    -0.56800
C158        C  0.94690960  0.28235928  0.56669830     0.75800
O159        O  0.95163978  0.22612777  0.60914846    -0.58000
C160        C  0.87303802  0.19676396  0.61310175     0.75800
C161        C  0.90872937  0.22947327  0.47836432     0.78200
Cd162      Cd  0.92022262  0.23236173  0.57972566     1.37500
O163        O  0.92665996  0.27153921  0.58920693    -0.56800
O164        O  0.90150207  0.23728492  0.51184847    -0.55600
C165        C  0.95119110  0.23312839  0.65258095     0.78100
O166        O  0.92098177  0.22108319  0.49201031    -0.58000
O167        O  0.95529074  0.27007017  0.55424535    -0.56500
O168        O  0.88625861  0.19136085  0.59067334    -0.56400
O169        O  0.93523232  0.23743130  0.66183062    -0.55600
O170        O  0.09958781  0.32670056  0.80988813    -0.56800
C171        C  0.04620499  0.33657320  0.88061170     0.75800
O172        O  0.02614539  0.26764543  0.84021295    -0.58000
C173        C  0.10553409  0.31238555  0.82252620     0.75800
C174        C  0.07907777  0.31692175  0.95772942     0.78200
Cd175      Cd  0.06321899  0.30716365  0.85927715     1.37500
O176        O  0.06434169  0.34464833  0.85177738    -0.56800
O177        O  0.08864457  0.33220656  0.92336632    -0.55600
C178        C  0.02555403  0.27331051  0.79587986     0.78100
O179        O  0.06272311  0.29550911  0.94572017    -0.58000
O180        O  0.03602082  0.31508777  0.89490582    -0.56500
O181        O  0.09056635  0.29449914  0.84884997    -0.56400
O182        O  0.04270463  0.29377790  0.78127524    -0.55600
O183        O  0.76443909  0.10431205  0.65420706    -0.56800
C184        C  0.70406041  0.03931010  0.71246463     0.75800
O185        O  0.72658109  0.10085600  0.78514277    -0.58000
C186        C  0.77322004  0.12617912  0.66394746     0.75800
C187        C  0.69328279  0.08442286  0.62639244     0.78200
Cd188      Cd  0.72706740  0.08893061  0.69766383     1.37500
O189        O  0.72427247  0.05079615  0.68988082    -0.56800
O190        O  0.71083124  0.08267314  0.61563111    -0.55600
C191        C  0.73998895  0.09370911  0.79830432     0.78100
O192        O  0.69226255  0.09047244  0.67038988    -0.58000
O193        O  0.69475006  0.05078740  0.72462660    -0.56500
O194        O  0.75953930  0.13094441  0.68658351    -0.56400
O195        O  0.74743181  0.08618827  0.76467468    -0.55600
O196        O  0.57382657  0.97173316  0.43977188    -0.56800
C197        C  0.53661875  0.00645052  0.45210031     0.75800
O198        O  0.62014224  0.04841226  0.43523700    -0.58000
C199        C  0.58875319  0.97397652  0.40708771     0.75800
C200        C  0.56752202  0.00520991  0.31646575     0.78200
Cd201      Cd  0.57965627  0.01074754  0.41758465     1.37500
O202        O  0.54190106  0.99151008  0.46321116    -0.56800
O203        O  0.55540629  0.98964401  0.34933213    -0.55600
C204        C  0.61871615  0.04384872  0.48095927     0.78100
O205        O  0.58537723  0.02534813  0.33090619    -0.58000
O206        O  0.55221098  0.02451661  0.42695365    -0.56500
O207        O  0.59973616  0.99329729  0.38279110    -0.56400
O208        O  0.59929629  0.02528702  0.49590562    -0.55600
O209        O  0.21635926  0.88647814  0.30218812    -0.56800
C210        C  0.27377862  0.95047869  0.23442076     0.75800
O211        O  0.28815025  0.89886907  0.28333822    -0.58000
C212        C  0.20782823  0.86451387  0.29405696     0.75800
C213        C  0.23996848  0.89198185  0.15692493     0.78200
Cd214      Cd  0.25364495  0.90143177  0.25734654     1.37500
O215        O  0.25420493  0.93897478  0.25912080    -0.56800
O216        O  0.22919976  0.89611938  0.18985944    -0.55600
C217        C  0.28809176  0.90558481  0.32715628     0.78100
O218        O  0.25680407  0.88971824  0.17120383    -0.58000
O219        O  0.28390309  0.93957762  0.22437778    -0.56500
O220        O  0.22177161  0.85959881  0.27320341    -0.56400
O221        O  0.27167474  0.90901096  0.33823294    -0.55600
O222        O  0.39926456  0.01430602  0.51671155    -0.56800
C223        C  0.44254499  0.98566188  0.50837967     0.75800
O224        O  0.39167654  0.96589806  0.62813058    -0.58000
C225        C  0.37990367  0.00728275  0.54055729     0.75800
C226        C  0.36138360  0.94311956  0.47376574     0.78200
Cd227      Cd  0.39775214  0.97787819  0.53995451     1.37500
O228        O  0.43651974  0.00005845  0.49744434    -0.56800
O229        O  0.37978836  0.96299044  0.46017829    -0.55600
C230        C  0.40788801  0.98694928  0.64210523     0.78100
O231        O  0.36022514  0.93781925  0.51906803    -0.58000
O232        O  0.42706493  0.96689046  0.53198428    -0.56500
O233        O  0.36982454  0.98749457  0.56300387    -0.56400
O234        O  0.41968154  0.00234888  0.60875296    -0.55600
O235        O  0.87906303  0.66151465  0.12564257    -0.56800
C236        C  0.93834913  0.65780984  0.08210546     0.75800
O237        O  0.91680551  0.69426172  0.99204172    -0.58000
C238        C  0.87174062  0.67475573  0.11367721     0.75800
C239        C  0.95196769  0.72141394  0.14193364     0.78200
Cd240      Cd  0.91672748  0.68420552  0.08029855     1.37500
O241        O  0.91789854  0.64920773  0.10278323    -0.56800
O242        O  0.93372602  0.70211654  0.15838425    -0.55600
C243        C  0.90411137  0.67227004  0.97978679     0.78100
O244        O  0.95296378  0.72491262  0.09573876    -0.58000
O245        O  0.94848618  0.67854071  0.06359200    -0.56500
O246        O  0.88610907  0.69325080  0.08824713    -0.56400
O247        O  0.89748080  0.65709743  0.01401954    -0.55600
O248        O  0.05037842  0.71694308  0.32933690    -0.56800
C249        C  0.10599965  0.79337650  0.31883827     0.75800
O250        O  0.02641349  0.76331989  0.32746429    -0.58000
C251        C  0.03310230  0.70647614  0.36055747     0.75800
C252        C  0.07315257  0.75891727  0.44552254     0.78200
Cd253      Cd  0.05866551  0.75655803  0.34739605     1.37500
O254        O  0.09697252  0.77184200  0.30560058    -0.56800
O255        O  0.07998187  0.75174271  0.40995537    -0.55600
C256        C  0.02626233  0.75825358  0.28223091     0.78100
O257        O  0.06000917  0.76676555  0.43524751    -0.58000
O258        O  0.09205977  0.79796315  0.34083943    -0.56500
O259        O  0.02682139  0.71913460  0.38156672    -0.56400
O260        O  0.04192339  0.75421500  0.26814457    -0.55600
O261        O  0.42812128  0.43602468  0.99120020    -0.56800
C262        C  0.36151777  0.37407384  0.03374788     0.75800
O263        O  0.39276415  0.43528320  0.11979595    -0.58000
C264        C  0.43826037  0.45782874  0.00333066     0.75800
C265        C  0.36016955  0.42907172  0.96397106     0.78200
Cd266      Cd  0.39015004  0.42412132  0.03061571     1.37500
O267        O  0.38163023  0.38501871  0.01083843    -0.56800
O268        O  0.37617194  0.42561650  0.94935464    -0.55600
C269        C  0.40306527  0.42447501  0.13046713     0.78100
O270        O  0.35971810  0.43298821  0.00972956    -0.58000
O271        O  0.35403466  0.38640024  0.05133541    -0.56500
O272        O  0.42525414  0.46396884  0.02397640    -0.56400
O273        O  0.40668837  0.41438292  0.09542011    -0.55600
O274        O  0.21085734  0.32805753  0.80156044    -0.56800
C275        C  0.27123365  0.32485663  0.76133549     0.75800
O276        O  0.25505220  0.36422832  0.67431269    -0.58000
C277        C  0.20300441  0.33993026  0.78352225     0.75800
C278        C  0.28250323  0.38846134  0.83048954     0.78200
Cd279      Cd  0.25024722  0.35193692  0.76268019     1.37500
O280        O  0.25064208  0.31619774  0.78137899    -0.56800
O281        O  0.26478728  0.36823463  0.84472184    -0.55600
C282        C  0.24158823  0.34256767  0.66010986     0.78100
O283        O  0.28399603  0.39284408  0.78460794    -0.58000
O284        O  0.28231911  0.34635117  0.74671095    -0.56500
O285        O  0.21790389  0.35856271  0.75899678    -0.56400
O286        O  0.23267143  0.32670283  0.69334161    -0.55600
O287        O  0.72973523  0.67180976  0.17426870    -0.56800
C288        C  0.77450105  0.64597385  0.16245288     0.75800
O289        O  0.72842802  0.62579279  0.28540515    -0.58000
C290        C  0.70834379  0.66285195  0.18989920     0.75800
C291        C  0.69509375  0.59838125  0.13544195     0.78200
Cd292      Cd  0.72956129  0.63615932  0.19650070     1.37500
O293        O  0.76698776  0.65902881  0.15041818    -0.56800
O294        O  0.71305631  0.61780784  0.11871041    -0.55600
C295        C  0.74222834  0.64775785  0.29713047     0.78100
O296        O  0.69425957  0.59508708  0.18169145    -0.58000
O297        O  0.76033876  0.62755550  0.18823501    -0.56500
O298        O  0.69703714  0.64163068  0.20623567    -0.56400
O299        O  0.74924190  0.66281661  0.26261520    -0.55600
O300        O  0.54901644  0.55050524  0.97672404    -0.56800
C301        C  0.61122375  0.61216663  0.91906035     0.75800
O302        O  0.61794355  0.55507308  0.95447091    -0.58000
C303        C  0.53906383  0.52834238  0.96841110     0.75800
C304        C  0.57391937  0.55885065  0.83290915     0.78200
Cd305      Cd  0.58619059  0.56237987  0.93391712     1.37500
O306        O  0.59258044  0.60168457  0.94675667    -0.56800
O307        O  0.56489539  0.56448670  0.86695096    -0.55600
C308        C  0.61906317  0.56124360  0.99916767     0.78100
O309        O  0.58772421  0.55221330  0.84597279    -0.58000
O310        O  0.61892624  0.59974723  0.90352478    -0.56500
O311        O  0.55188667  0.52196581  0.94776423    -0.56400
O312        O  0.60388736  0.56589127  0.01346146    -0.55600
O313        O  0.65891017  0.77177070  0.80727244    -0.56800
C314        C  0.65593949  0.70981481  0.85777465     0.75800
O315        O  0.72430972  0.76840131  0.83077686    -0.58000
C316        C  0.67152550  0.79337811  0.82159321     0.75800
C317        C  0.67436567  0.76287147  0.94892840     0.78200
Cd318      Cd  0.68350387  0.76018548  0.84813933     1.37500
O319        O  0.64697237  0.71963433  0.83508228    -0.56800
O320        O  0.65841702  0.75231554  0.91664585    -0.55600
C321        C  0.72038018  0.76363455  0.78526895     0.78100
O322        O  0.69623887  0.77345305  0.93432665    -0.58000
O323        O  0.67734237  0.72317840  0.87243839    -0.56500
O324        O  0.69113739  0.79996709  0.84262403    -0.56400
O325        O  0.70080747  0.75994763  0.76922772    -0.55600
O326        O  0.77446135  0.67076933  0.63797582    -0.56800
C327        C  0.71246830  0.66208980  0.58525946     0.75800
O328        O  0.76787558  0.73331384  0.60909024    -0.58000
C329        C  0.79632388  0.68306776  0.62372709     0.75800
C330        C  0.76624722  0.68420192  0.49498793     0.78200
Cd331      Cd  0.76281091  0.69399787  0.59489685     1.37500
O332        O  0.72285389  0.65876379  0.62006757    -0.56800
O333        O  0.75972625  0.66932125  0.52977019    -0.55600
C334        C  0.76255211  0.72920208  0.65461156     0.78100
O335        O  0.77371597  0.70567353  0.50672790    -0.58000
O336        O  0.72520184  0.68043302  0.55863115    -0.56500
O337        O  0.80344789  0.70255855  0.60138970    -0.56400
O338        O  0.76026591  0.71057322  0.67214677    -0.55600
O339        O  0.66087130  0.93060894  0.79253457    -0.56800
C340        C  0.63637726  0.85539982  0.80637550     0.75800
O341        O  0.58523797  0.88124632  0.79170090    -0.58000
C342        C  0.65184919  0.94001178  0.76826874     0.75800
C343        C  0.63714275  0.88898567  0.67512239     0.78200
Cd344      Cd  0.62618469  0.88974452  0.77656181     1.37500
O345        O  0.64938083  0.87715028  0.81972751    -0.56800
O346        O  0.65321941  0.90017778  0.70702741    -0.55600
C347        C  0.58909382  0.88730747  0.83669044     0.78100
O348        O  0.61534291  0.87722663  0.69062634    -0.58000
O349        O  0.61725625  0.84919364  0.78370396    -0.56500
O350        O  0.63096875  0.92605986  0.75142059    -0.56400
O351        O  0.60854962  0.89132957  0.85423654    -0.55600
O352        O  0.53760126  0.98765333  0.97059559    -0.56800
C353        C  0.60116733  0.99600646  0.02100322     0.75800
O354        O  0.53879189  0.95297134  0.10050143    -0.58000
C355        C  0.51693648  0.97703240  0.99120113     0.75800
C356        C  0.54859207  0.92719187  0.95682710     0.78200
Cd357      Cd  0.55066262  0.96490050  0.01305035     1.37500
O358        O  0.59089855  0.00045549  0.98775438    -0.56800
O359        O  0.55082037  0.94538892  0.93686138    -0.55600
C360        C  0.54969329  0.97476090  0.11407606     0.78100
O361        O  0.54420410  0.92477206  0.00276980    -0.58000
O362        O  0.58843322  0.97670239  0.04485714    -0.56500
O363        O  0.51076795  0.95864530  0.01672648    -0.56400
O364        O  0.55944762  0.99051627  0.08068475    -0.55600
O365        O  0.98400566  0.54831007  0.46145152    -0.56800
C366        C  0.98632815  0.60670182  0.40565218     0.75800
O367        O  0.94420229  0.54086961  0.33387887    -0.58000
C368        C  0.97099204  0.52591419  0.45409266     0.75800
C369        C  0.91973579  0.55605149  0.47640566     0.78200
Cd370      Cd  0.95702688  0.55657186  0.41936912     1.37500
O371        O  0.98922769  0.59743888  0.44331274    -0.56800
O372        O  0.93730194  0.55682411  0.49590668    -0.55600
C373        C  0.96608437  0.55049128  0.31998345     0.78100
O374        O  0.91745630  0.55241912  0.43034797    -0.58000
O375        O  0.96999496  0.59288484  0.37619259    -0.56500
O376        O  0.95032673  0.51767819  0.43616201    -0.56400
O377        O  0.98187407  0.56066423  0.35273145    -0.55600
O378        O  0.87653261  0.65632063  0.63414383    -0.56800
C379        C  0.93747374  0.65869233  0.68933685     0.75800
O380        O  0.87548059  0.61796371  0.76380301    -0.58000
C381        C  0.85447322  0.64399562  0.64718647     0.75800
C382        C  0.88432338  0.59695059  0.60825327     0.78200
Cd383      Cd  0.88699837  0.63154451  0.67640859     1.37500
O384        O  0.92835721  0.66766108  0.66408935    -0.56800
O385        O  0.89105079  0.61803237  0.59611253    -0.55600
C386        C  0.88404976  0.63927739  0.77858468     0.78100
O387        O  0.87662559  0.59070432  0.65226931    -0.58000
O388        O  0.92327195  0.63747299  0.70466860    -0.56500
O389        O  0.84709995  0.62453409  0.66983818    -0.56400
O390        O  0.89184989  0.65530038  0.74580032    -0.55600
O391        O  0.99142478  0.44055511  0.46359677    -0.56800
C392        C  0.99358908  0.38060383  0.50711261     0.75800
O393        O  0.05968978  0.44163910  0.48057265    -0.58000
C394        C  0.00401368  0.46246785  0.47570417     0.75800
C395        C  0.00887412  0.43042985  0.60395429     0.78200
Cd396      Cd  0.01826395  0.43078069  0.50060072     1.37500
O397        O  0.98410412  0.38979185  0.48387692    -0.56800
O398        O  0.99269692  0.42010961  0.57201751    -0.55600
C399        C  0.05531635  0.43521868  0.43582460     0.78100
O400        O  0.03059264  0.44223961  0.58793434    -0.58000
O401        O  0.01454132  0.39473387  0.52352930    -0.56500
O402        O  0.02434730  0.47001202  0.49451947    -0.56400
O403        O  0.03518059  0.43005716  0.41988544    -0.55600
O404        O  0.10440078  0.33382619  0.31272480    -0.56800
C405        C  0.04223417  0.32829438  0.25165728     0.75800
O406        O  0.10132812  0.39638802  0.27639641    -0.58000
C407        C  0.12659649  0.34674920  0.30076464     0.75800
C408        C  0.09569820  0.34443849  0.16226817     0.78200
Cd409      Cd  0.09266386  0.35556875  0.26279698     1.37500
O410        O  0.05183413  0.31922013  0.27485197    -0.56800
O411        O  0.08637317  0.32890043  0.19611031    -0.55600
C412        C  0.09460189  0.39254286  0.32133394     0.78100
O413        O  0.10524609  0.36614740  0.17537648    -0.58000
O414        O  0.05581038  0.34987524  0.23804215    -0.56500
O415        O  0.13329475  0.36507546  0.27447851    -0.56400
O416        O  0.08933121  0.37276539  0.33938312    -0.55600
O417        O  0.43761927  0.00522357  0.99105415    -0.56800
C418        C  0.37475065  0.00096333  0.93984458     0.75800
O419        O  0.43484416  0.06927164  0.96136197    -0.58000
C420        C  0.45885653  0.01651199  0.97301300     0.75800
C421        C  0.42598014  0.01893531  0.84394301     0.78200
Cd422      Cd  0.42570348  0.02858906  0.94617164     1.37500
O423        O  0.38502092  0.99220372  0.96160224    -0.56800
O424        O  0.41505724  0.00319475  0.87702461    -0.55600
C425        C  0.42899792  0.06566275  0.00674022     0.78100
O426        O  0.43865032  0.04067450  0.85793860    -0.58000
O427        O  0.38797769  0.02248155  0.92552418    -0.56500
O428        O  0.46524999  0.03490871  0.94732654    -0.56400
O429        O  0.42478625  0.04628913  0.02489728    -0.55600
O430        O  0.32006213  0.10935191  0.13276769    -0.56800
C431        C  0.32159769  0.04904321  0.17582677     0.75800
O432        O  0.38805081  0.11068620  0.16162924    -0.58000
C433        C  0.33189609  0.13105733  0.14637484     0.75800
C434        C  0.33326975  0.09809313  0.27625362     0.78200
Cd435      Cd  0.34601687  0.09954274  0.17442444     1.37500
O436        O  0.31254774  0.05861948  0.15243046    -0.56800
O437        O  0.31847962  0.08696813  0.24221339    -0.55600
C438        C  0.38566332  0.10571518  0.11603285     0.78100
O439        O  0.35543084  0.11120990  0.26346666    -0.58000
O440        O  0.34184798  0.06295923  0.19533402    -0.56500
O441        O  0.35158010  0.13852028  0.16804384    -0.56400
O442        O  0.36636440  0.10122789  0.09671992    -0.55600
O443        O  0.21062488  0.32536443  0.31568714    -0.56800
C444        C  0.27277798  0.32762051  0.35355225     0.75800
O445        O  0.21176610  0.28884465  0.44371920    -0.58000
C446        C  0.18892240  0.31308064  0.33102003     0.75800
C447        C  0.21581869  0.26382409  0.28928630     0.78200
Cd448      Cd  0.22207725  0.30059203  0.35495663     1.37500
O449        O  0.26188718  0.33648147  0.33523973    -0.56800
O450        O  0.22028098  0.28381710  0.27447358    -0.55600
C451        C  0.22357180  0.31062841  0.45754306     0.78100
O452        O  0.21171968  0.25958179  0.33515896    -0.58000
O453        O  0.26019668  0.30613571  0.36828735    -0.56500
O454        O  0.18221093  0.29382309  0.35378170    -0.56400
O455        O  0.23340741  0.32627686  0.42402260    -0.55600
O456        O  0.31048100  0.21586389  0.13061306    -0.56800
C457        C  0.31060161  0.27399599  0.07894888     0.75800
O458        O  0.26873025  0.20754911  0.00335393    -0.58000
C459        C  0.29759170  0.19345275  0.12345512     0.75800
C460        C  0.24690148  0.22189431  0.15099416     0.78200
Cd461      Cd  0.28315815  0.22368903  0.08840823     1.37500
O462        O  0.31842452  0.26415677  0.10533508    -0.56800
O463        O  0.26566328  0.22387662  0.16717672    -0.55600
C464        C  0.29025176  0.21763747  0.98691562     0.78100
O465        O  0.24303641  0.21769750  0.10533579    -0.58000
O466        O  0.29032286  0.26041253  0.05936827    -0.56500
O467        O  0.27703172  0.18512678  0.10490359    -0.56400
O468        O  0.30683465  0.22914296  0.01760944    -0.55600
C469        C  0.21552401  0.25026195  0.20368242    -0.11300
C470        C  0.21723817  0.24746720  0.25436883     0.05700
C471        C  0.22413283  0.23197007  0.26962929    -0.06600
C472        C  0.23142439  0.22170746  0.23461524    -0.07300
C473        C  0.23185790  0.22632984  0.18417085    -0.01900
C474        C  0.22253512  0.23973406  0.16862048     0.05000
N475        N  0.22240339  0.24495728  0.11778099     0.67500
H476        H  0.21001091  0.26184305  0.19106790     0.16400
H477        H  0.23845468  0.21142340  0.24727148     0.16100
N478        N  0.22641573  0.22849383  0.32048991     0.75200
O479        O  0.20405068  0.23106380  0.09263275    -0.38300
O480        O  0.23793738  0.26555423  0.10127473    -0.38200
O481        O  0.21073409  0.20903083  0.34108414    -0.38900
O482        O  0.24627319  0.24227311  0.34132088    -0.39000
C483        C  0.33811955  0.17124128  0.15113665    -0.11300
C484        C  0.32293760  0.14683759  0.13959925     0.05700
C485        C  0.29903937  0.13785741  0.12563547    -0.06600
C486        C  0.29103674  0.15321759  0.12280414    -0.07300
C487        C  0.30634849  0.17771381  0.13318654    -0.01900
C488        C  0.33015885  0.18666983  0.14795631     0.05000
N489        N  0.34673287  0.21139888  0.15901441     0.67500
H490        H  0.35641334  0.17853271  0.16255207     0.16400
H491        H  0.27272990  0.14585984  0.11139510     0.16100
N492        N  0.28246267  0.11316400  0.11442869     0.75200
O493        O  0.35069913  0.21794075  0.20331197    -0.38300
O494        O  0.36106168  0.22535089  0.12593386    -0.38200
O495        O  0.26681452  0.09956637  0.14611480    -0.38900
O496        O  0.27994200  0.10644171  0.07029136    -0.39000
C497        C  0.41529521  0.09337838  0.01058014    -0.11300
C498        C  0.42435259  0.08169610  0.03552502     0.05700
C499        C  0.42465527  0.08236856  0.08746731    -0.06600
C500        C  0.41427159  0.09284765  0.11309294    -0.07300
C501        C  0.40292779  0.10227202  0.08804708    -0.01900
C502        C  0.40446694  0.10339687  0.03616133     0.05000
N503        N  0.39435760  0.11386145  0.00866394     0.67500
H504        H  0.41506133  0.09330579  0.97086006     0.16400
H505        H  0.41336553  0.09178902  0.15277948     0.16100
N506        N  0.43457599  0.07172396  0.11498018     0.75200
O507        O  0.40558075  0.13634311  0.00565662    -0.38300
O508        O  0.37738417  0.10108152  0.97949937    -0.38200
O509        O  0.45513642  0.08502245  0.13349197    -0.38900
O510        O  0.42085705  0.05055258  0.13064940    -0.39000
C511        C  0.18267286  0.34525290  0.30918034    -0.11300
C512        C  0.17269839  0.32149770  0.32434231     0.05700
C513        C  0.14784570  0.30700944  0.33587436    -0.06600
C514        C  0.13346821  0.31605612  0.33015627    -0.07300
C515        C  0.14330046  0.33957414  0.31371239    -0.01900
C516        C  0.16836580  0.35449107  0.30458761     0.05000
N517        N  0.17976784  0.37923792  0.29232267     0.67500
H518        H  0.20182203  0.35699155  0.30200562     0.16400
H519        H  0.11433105  0.30427600  0.33740834     0.16100
N520        N  0.13670351  0.28292147  0.35272420     0.75200
O521        O  0.18334973  0.39392073  0.32573960    -0.38300
O522        O  0.19044943  0.38696986  0.25135548    -0.38200
O523        O  0.13238536  0.27833678  0.39803341    -0.38900
O524        O  0.12686744  0.26602840  0.32218361    -0.39000
C525        C  0.08292478  0.42130905  0.42904115    -0.11300
C526        C  0.07133201  0.43084960  0.40553481     0.05700
C527        C  0.07155245  0.43140181  0.35357928    -0.06600
C528        C  0.08150343  0.42086095  0.32656641    -0.07300
C529        C  0.09073127  0.40904535  0.35033190    -0.01900
C530        C  0.09219346  0.41013286  0.40212828     0.05000
N531        N  0.10192345  0.39892401  0.42825247     0.67500
H532        H  0.08299385  0.42065485  0.46876458     0.16400
H533        H  0.08028879  0.42033988  0.28691351     0.16100
N534        N  0.06092514  0.44174935  0.32757480     0.75200
O535        O  0.12344935  0.41141527  0.44235937    -0.38300
O536        O  0.08786850  0.37827892  0.44623250    -0.38200
O537        O  0.07410305  0.46317684  0.31305637    -0.38900
O538        O  0.04030195  0.42827648  0.30943563    -0.39000
C539        C  0.96309491  0.48521966  0.46174302    -0.11300
C540        C  0.97969658  0.51010253  0.46324889     0.05700
C541        C  0.00440544  0.51913186  0.46864404    -0.06600
C542        C  0.01187679  0.50332304  0.47228067    -0.07300
C543        C  0.99528630  0.47845579  0.46994137    -0.01900
C544        C  0.97059414  0.46944551  0.46497235     0.05000
N545        N  0.95272870  0.44432119  0.46418732     0.67500
H546        H  0.94410675  0.47785955  0.45758461     0.16400
H547        H  0.03087140  0.51063307  0.47615412     0.16100
N548        N  0.02236769  0.54424815  0.46795888     0.75200
O549        O  0.94230892  0.43357277  0.50375026    -0.38300
O550        O  0.94399422  0.43416878  0.42368231    -0.38200
O551        O  0.03078978  0.55511363  0.50798568    -0.38900
O552        O  0.03334179  0.55416089  0.42820770    -0.39000
C553        C  0.89111184  0.58816160  0.52276309    -0.11300
C554        C  0.88711234  0.58156228  0.57275239     0.05700
C555        C  0.88955857  0.56287653  0.58809449    -0.06600
C556        C  0.89861093  0.55337164  0.55510644    -0.07300
C557        C  0.90432695  0.56134792  0.50610504    -0.01900
C558        C  0.89931339  0.57805889  0.48944216     0.05000
N559        N  0.90480238  0.58683299  0.44001854     0.67500
H560        H  0.88903564  0.60218321  0.50977500     0.16400
H561        H  0.90215083  0.54039641  0.56843541     0.16100
N562        N  0.88438750  0.55433746  0.63764821     0.75200
O563        O  0.88858661  0.57706793  0.40808003    -0.38300
O564        O  0.92396817  0.60679916  0.43069098    -0.38200
O565        O  0.86394009  0.53605015  0.64843331    -0.38900
O566        O  0.90134394  0.56194737  0.66772182    -0.39000
C567        C  0.50672782  0.00318501  0.94979213    -0.11300
C568        C  0.50143873  0.98645653  0.98696960     0.05700
C569        C  0.48289052  0.98080917  0.02147921    -0.06600
C570        C  0.46972853  0.99133475  0.01716732    -0.07300
C571        C  0.47483521  0.00779811  0.97947227    -0.01900
C572        C  0.49376912  0.01387255  0.94580728     0.05000
N573        N  0.49947495  0.03005013  0.90589225     0.67500
H574        H  0.52103093  0.00802738  0.92334395     0.16400
H575        H  0.45538620  0.98653024  0.04349192     0.16100
N576        N  0.47766524  0.96513582  0.06215358     0.75200
O577        O  0.51506854  0.05207459  0.91154234    -0.38300
O578        O  0.49287951  0.02189618  0.86310977    -0.38200
O579        O  0.48482976  0.97387138  0.10438036    -0.38900
O580        O  0.46156803  0.94314886  0.05809094    -0.39000
C581        C  0.57408991  0.89084731  0.91850023    -0.11300
C582        C  0.57304565  0.89155646  0.86705056     0.05700
C583        C  0.55998301  0.90029354  0.84622838    -0.06600
C584        C  0.55034157  0.91008398  0.87659278    -0.07300
C585        C  0.55299967  0.91103820  0.92785615    -0.01900
C586        C  0.56402490  0.90018942  0.94891999     0.05000
N587        N  0.56724341  0.90052840  0.00079469     0.67500
H588        H  0.58388714  0.88407857  0.93530545     0.16400
H589        H  0.54193915  0.91828420  0.85961497     0.16100
N590        N  0.55841952  0.90165974  0.79418524     0.75200
O591        O  0.55093815  0.88376619  0.02711389    -0.38300
O592        O  0.58784555  0.91462294  0.01853759    -0.38200
O593        O  0.53893734  0.88689108  0.77311762    -0.38900
O594        O  0.57435127  0.92023763  0.77139231    -0.39000
C595        C  0.80246633  0.65229825  0.65596775    -0.11300
C596        C  0.81198731  0.67401018  0.63055872     0.05700
C597        C  0.83498983  0.68489012  0.60809583    -0.06600
C598        C  0.84816112  0.67443199  0.61287323    -0.07300
C599        C  0.83871305  0.65283580  0.63873978    -0.01900
C600        C  0.81533703  0.64151219  0.65958957     0.05000
N601        N  0.80410750  0.61891061  0.68412284     0.67500
H602        H  0.78466589  0.64324547  0.67230024     0.16400
H603        H  0.86587291  0.68332772  0.59617391     0.16100
N604        N  0.84502005  0.70607134  0.57882519     0.75200
O605        O  0.80229212  0.61804346  0.73039647    -0.38300
O606        O  0.79135415  0.59997834  0.65973052    -0.38200
O607        O  0.86006643  0.72612494  0.59748752    -0.38900
O608        O  0.84292255  0.70426745  0.53272638    -0.39000
C609        C  0.63892869  0.79988995  0.80376216    -0.11300
C610        C  0.66297283  0.80959705  0.81678326     0.05700
C611        C  0.67751701  0.83407719  0.82923871    -0.06600
C612        C  0.66809507  0.84826843  0.82762132    -0.07300
C613        C  0.64421219  0.83871095  0.81372573    -0.01900
C614        C  0.62945728  0.81408638  0.80234547     0.05000
N615        N  0.60471780  0.80299985  0.78994235     0.67500
H616        H  0.62723350  0.78110524  0.79538107     0.16400
H617        H  0.67982239  0.86703237  0.83613071     0.16100
N618        N  0.70208675  0.84507896  0.84283924     0.75200
O619        O  0.59872225  0.79918244  0.74540487    -0.38300
O620        O  0.58871633  0.79246820  0.82303768    -0.38200
O621        O  0.71853251  0.85629316  0.81084789    -0.38900
O622        O  0.70744717  0.84760153  0.88773313    -0.39000
C623        C  0.73410487  0.76152510  0.70113321    -0.11300
C624        C  0.73659783  0.76074998  0.75220166     0.05700
C625        C  0.75135781  0.75329121  0.76978024    -0.06600
C626        C  0.76158945  0.74511871  0.73661253    -0.07300
C627        C  0.75730457  0.74397300  0.68595869    -0.01900
C628        C  0.74402178  0.75301225  0.66810292     0.05000
N629        N  0.73751970  0.75058764  0.61756142     0.67500
H630        H  0.72278185  0.76703102  0.68680944     0.16400
H631        H  0.77156274  0.73805380  0.75095543     0.16100
N632        N  0.75402339  0.75132242  0.82122083     0.75200
O633        O  0.71899180  0.73134281  0.60316545    -0.38300
O634        O  0.74692891  0.76895631  0.59052512    -0.38200
O635        O  0.73937042  0.73189157  0.84321208    -0.38900
O636        O  0.77371756  0.76638709  0.84127039    -0.39000
C637        C  0.61051244  0.64868969  0.91043375    -0.11300
C638        C  0.62273526  0.63724156  0.90306733     0.05700
C639        C  0.64502357  0.64946400  0.87723064    -0.06600
C640        C  0.65467497  0.67265746  0.86020423    -0.07300
C641        C  0.64265561  0.68413866  0.86819003    -0.01900
C642        C  0.62031740  0.67202852  0.89332503     0.05000
N643        N  0.60839871  0.68380860  0.90526423     0.67500
H644        H  0.59332607  0.63958498  0.92994367     0.16400
H645        H  0.67215395  0.68209408  0.84175626     0.16100
N646        N  0.65865317  0.63906677  0.86963500     0.75200
O647        O  0.59088374  0.67985361  0.87976638    -0.38300
O648        O  0.61184361  0.69370887  0.94660562    -0.38200
O649        O  0.65712260  0.62893744  0.82937989    -0.38900
O650        O  0.67548422  0.64415000  0.89854493    -0.39000
C651        C  0.74881238  0.65063246  0.43611423    -0.11300
C652        C  0.76309409  0.67555187  0.44378033     0.05700
C653        C  0.77184693  0.69091308  0.40269786    -0.06600
C654        C  0.76534785  0.68126665  0.35550138    -0.07300
C655        C  0.75000236  0.65637685  0.34795783    -0.01900
C656        C  0.74214162  0.64098182  0.38901104     0.05000
N657        N  0.72674300  0.61559844  0.38407608     0.67500
H658        H  0.74187201  0.63835869  0.46702753     0.16400
H659        H  0.77202924  0.69354427  0.32461471     0.16100
N660        N  0.78715928  0.71628596  0.40795528     0.75200
O661        O  0.73590577  0.60339440  0.38260650    -0.38300
O662        O  0.70452745  0.60528003  0.39337005    -0.38200
O663        O  0.80961927  0.72650363  0.40248874    -0.38900
O664        O  0.77815089  0.72862117  0.40659187    -0.39000
C665        C  0.68038394  0.58381763  0.05130393    -0.11300
C666        C  0.67533898  0.58195980  0.10202706     0.05700
C667        C  0.65108868  0.56894822  0.11813570    -0.06600
C668        C  0.63267052  0.56070568  0.08366798    -0.07300
C669        C  0.63793732  0.56459784  0.03301234    -0.01900
C670        C  0.66199908  0.57532429  0.01682560     0.05000
N671        N  0.66851912  0.58076767  0.96605328     0.67500
H672        H  0.69887668  0.59375920  0.03823402     0.16400
H673        H  0.61428908  0.55235419  0.09669693     0.16100
N674        N  0.64499486  0.56613644  0.16933313     0.75200
O675        O  0.67228964  0.59995073  0.94833261    -0.38300
O676        O  0.67547645  0.56937331  0.94237382    -0.38200
O677        O  0.64121749  0.58055562  0.19055505    -0.38900
O678        O  0.64546306  0.55055553  0.19424645    -0.39000
C679        C  0.24287706  0.34286728  0.52005032    -0.11300
C680        C  0.22675116  0.31835622  0.50965814     0.05700
C681        C  0.21489232  0.30228893  0.54909335    -0.06600
C682        C  0.21975376  0.31075814  0.59742625    -0.07300
C683        C  0.23628584  0.33519788  0.60785666    -0.01900
C684        C  0.24768042  0.35135017  0.56835516     0.05000
N685        N  0.26458648  0.37631922  0.57635924     0.67500
H686        H  0.25224741  0.35566721  0.49051424     0.16400
H687        H  0.21052025  0.29794331  0.62699031     0.16100
N688        N  0.19778533  0.27737011  0.54096902     0.75200
O689        O  0.28682158  0.38462603  0.57596630    -0.38300
O690        O  0.25772645  0.39046852  0.57368009    -0.38200
O691        O  0.20375574  0.26271436  0.54789779    -0.38900
O692        O  0.17583928  0.26970292  0.53624162    -0.39000
C693        C  0.36122182  0.33889584  0.05984038    -0.11300
C694        C  0.34830664  0.34837363  0.04317606     0.05700
C695        C  0.32306100  0.33368633  0.04087218    -0.06600
C696        C  0.31121116  0.30957333  0.05346144    -0.07300
C697        C  0.32407067  0.29990869  0.06986002    -0.01900
C698        C  0.34930250  0.31491363  0.07400029     0.05000
N699        N  0.36312494  0.30618543  0.09212638     0.67500
H700        H  0.38059156  0.35032584  0.06321598     0.16400
H701        H  0.29181395  0.29839662  0.05048915     0.16100
N702        N  0.30924077  0.34281872  0.02490289     0.75200
O703        O  0.37198326  0.29850339  0.06227410    -0.38300
O704        O  0.37060593  0.31083224  0.13568544    -0.38200
O705        O  0.30235764  0.33973693  0.98094927    -0.38900
O706        O  0.29951881  0.34884538  0.05650686    -0.39000
C707        C  0.50544121  0.48659631  0.98632202    -0.11300
C708        C  0.51346572  0.51070715  0.98032869     0.05700
C709        C  0.49655954  0.51717588  0.98241776    -0.06600
C710        C  0.47217976  0.49958809  0.98968425    -0.07300
C711        C  0.46411614  0.47547311  0.99474848    -0.01900
C712        C  0.48101087  0.46900207  0.99384251     0.05000
N713        N  0.47388236  0.44491528  0.00273911     0.67500
H714        H  0.51818706  0.48136976  0.98541618     0.16400
H715        H  0.45943890  0.50482548  0.99046383     0.16100
N716        N  0.50353672  0.54127261  0.97453870     0.75200
O717        O  0.47217664  0.43200579  0.96708004    -0.38300
O718        O  0.47427847  0.43839665  0.04597859    -0.38200
O719        O  0.50221138  0.54780820  0.93193418    -0.38900
O720        O  0.50536320  0.55385694  0.01094712    -0.39000
C721        C  0.32558086  0.41882318  0.84684962    -0.11300
C722        C  0.30182514  0.40481754  0.86503756     0.05700
C723        C  0.29790461  0.40347715  0.91649157    -0.06600
C724        C  0.31755505  0.41414462  0.94832972    -0.07300
C725        C  0.34124120  0.42563576  0.93003811    -0.01900
C726        C  0.34521067  0.42889662  0.87868580     0.05000
N727        N  0.36898881  0.44129864  0.85797325     0.67500
H728        H  0.32904990  0.42027820  0.80764713     0.16400
H729        H  0.31409471  0.41152797  0.98750621     0.16100
N730        N  0.27413361  0.39026154  0.93727968     0.75200
O731        O  0.37696318  0.42944344  0.84059164    -0.38300
O732        O  0.37919290  0.46302528  0.84607700    -0.38200
O733        O  0.26589991  0.36975738  0.95521869    -0.38900
O734        O  0.26419475  0.40115674  0.94860679    -0.39000
C735        C  0.02454940  0.66624051  0.34164380    -0.11300
C736        C  0.02130731  0.68091275  0.37309858     0.05700
C737        C  0.00765597  0.67103266  0.41713252    -0.06600
C738        C  0.99760976  0.64698960  0.42853225    -0.07300
C739        C  0.00044888  0.63241657  0.39645931    -0.01900
C740        C  0.01397497  0.64205238  0.35269290     0.05000
N741        N  0.01730442  0.62751273  0.31945507     0.67500
H742        H  0.03508219  0.67346634  0.30798422     0.16400
H743        H  0.98672645  0.63943410  0.46173001     0.16100
N744        N  0.00371869  0.68501981  0.45074531     0.75200
O745        O  0.00464470  0.61943927  0.28141017    -0.38300
O746        O  0.03569935  0.62667614  0.32307753    -0.38200
O747        O  0.98457000  0.68458612  0.44818903    -0.38900
O748        O  0.01630854  0.69312034  0.48887916    -0.39000
C749        C  0.89356430  0.66989981  0.84210708    -0.11300
C750        C  0.88628560  0.64625682  0.83105612     0.05700
C751        C  0.88396618  0.63117000  0.86974289    -0.06600
C752        C  0.88921454  0.63995300  0.91781110    -0.07300
C753        C  0.89746695  0.66388279  0.92846744    -0.01900
C754        C  0.89945999  0.67886513  0.88995131     0.05000
N755        N  0.90793236  0.70334294  0.89832955     0.67500
H756        H  0.89554924  0.68191690  0.81312809     0.16400
H757        H  0.88773248  0.62811350  0.94668337     0.16100
N758        N  0.87802610  0.60749967  0.86070129     0.75200
O759        O  0.92999908  0.71929817  0.89203531    -0.38300
O760        O  0.89301186  0.70931300  0.90187253    -0.38200
O761        O  0.89473511  0.60413393  0.85400894    -0.38900
O762        O  0.85695233  0.58984738  0.86987914    -0.39000
C763        C  0.96606193  0.73708195  0.22591485    -0.11300
C764        C  0.97163393  0.73760904  0.17572030     0.05700
C765        C  0.99604125  0.74969985  0.16097090    -0.06600
C766        C  0.01394483  0.75838612  0.19661673    -0.07300
C767        C  0.00809046  0.75551655  0.24704388    -0.01900
C768        C  0.98400990  0.74602843  0.26154828     0.05000
N769        N  0.97702611  0.74290009  0.31225020     0.67500
H770        H  0.94740856  0.72809783  0.23792980     0.16400
H771        H  0.03241121  0.76591073  0.18471212     0.16100
N772        N  0.00279565  0.75078507  0.11051552     0.75200
O773        O  0.97283080  0.75726312  0.33233061    -0.38300
O774        O  0.97023181  0.72339482  0.33348854    -0.38200
O775        O  0.01239403  0.77032848  0.08737135    -0.38900
O776        O  0.00404362  0.73409221  0.09276801    -0.39000
C777        C  0.83102524  0.64546342  0.14781155    -0.11300
C778        C  0.84721394  0.66818293  0.12724315     0.05700
C779        C  0.83904939  0.68324454  0.11740688    -0.06600
C780        C  0.81515597  0.67533309  0.12797298    -0.07300
C781        C  0.79899782  0.65262015  0.14859619    -0.01900
C782        C  0.80714715  0.63755740  0.15833310     0.05000
N783        N  0.79141877  0.61401886  0.17812006     0.67500
H784        H  0.83673753  0.63345349  0.15503671     0.16400
H785        H  0.80941254  0.68732318  0.12078955     0.16100
N786        N  0.85475421  0.70677376  0.09754930     0.75200
O787        O  0.77902908  0.59671167  0.14940677    -0.38300
O788        O  0.79337106  0.60992210  0.22243620    -0.38200
O789        O  0.85255654  0.71085867  0.05337449    -0.38900
O790        O  0.86693343  0.72411121  0.12631939    -0.39000
C791        C  0.43521889  0.01481036  0.70668036    -0.11300
C792        C  0.41284389  0.99409560  0.69435957     0.05700
C793        C  0.39519403  0.98203552  0.73153386    -0.06600
C794        C  0.40018400  0.99059274  0.77966140    -0.07300
C795        C  0.42243781  0.01132671  0.79198774    -0.01900
C796        C  0.44012415  0.02349463  0.75496578     0.05000
N797        N  0.46337611  0.04404869  0.76592454     0.67500
H798        H  0.44903903  0.02437747  0.67864675     0.16400
H799        H  0.38617692  0.98123693  0.80743912     0.16100
N800        N  0.37156216  0.96206613  0.72068219     0.75200
O801        O  0.48007936  0.04134094  0.77694046    -0.38300
O802        O  0.46853133  0.06454189  0.75383091    -0.38200
O803        O  0.36566989  0.94125635  0.73213903    -0.38900
O804        O  0.35537808  0.96562450  0.71014222    -0.39000
C805        C  0.28374641  0.00918266  0.18948022    -0.11300
C806        C  0.30889124  0.02304386  0.18352149     0.05700
C807        C  0.32192601  0.01254444  0.19237295    -0.06600
C808        C  0.30997769  0.98908758  0.20955469    -0.07300
C809        C  0.28499010  0.97542496  0.21765952    -0.01900
C810        C  0.27168047  0.98544982  0.20634065     0.05000
N811        N  0.24600374  0.97169832  0.21022110     0.67500
H812        H  0.27350732  0.01701929  0.18268380     0.16400
H813        H  0.32045592  0.98153560  0.21667564     0.16100
N814        N  0.34733306  0.02536955  0.18344988     0.75200
O815        O  0.23607972  0.97391568  0.24778025    -0.38300
O816        O  0.23372872  0.96220238  0.17212258    -0.38200
O817        O  0.36143254  0.03161110  0.21921051    -0.38900
O818        O  0.35512369  0.02615397  0.14048169    -0.39000
C819        C  0.16614709  0.85321974  0.31025975    -0.11300
C820        C  0.18219024  0.84594163  0.30457845     0.05700
C821        C  0.17290346  0.82123796  0.30402938    -0.06600
C822        C  0.14798936  0.80451633  0.30704124    -0.07300
C823        C  0.13194551  0.81184717  0.31183844    -0.01900
C824        C  0.14131220  0.83652922  0.31418030     0.05000
N825        N  0.12592565  0.84508464  0.31941304     0.67500
H826        H  0.17280466  0.87204324  0.31053353     0.16400
H827        H  0.14124483  0.78566894  0.30699989     0.16100
N828        N  0.18843488  0.81274544  0.30273360     0.75200
O829        O  0.12143393  0.84950509  0.36178458    -0.38300
O830        O  0.12153409  0.85322253  0.28226958    -0.38200
O831        O  0.19283301  0.80613894  0.34225131    -0.38900
O832        O  0.19291758  0.80666493  0.26223085    -0.39000
C833        C  0.34855136  0.93059335  0.38755511    -0.11300
C834        C  0.34214717  0.92809880  0.43771702     0.05700
C835        C  0.31743905  0.91458353  0.45079214    -0.06600
C836        C  0.29998811  0.90620455  0.41397848    -0.07300
C837        C  0.30656350  0.91033385  0.36388103    -0.01900
C838        C  0.33109909  0.92167989  0.35079896     0.05000
N839        N  0.33887631  0.92634487  0.30053775     0.67500
H840        H  0.36737807  0.94068853  0.37662371     0.16400
H841        H  0.28119739  0.89717791  0.42473641     0.16100
N842        N  0.30972323  0.91063452  0.50109312     0.75200
O843        O  0.34283384  0.94506867  0.27998100    -0.38300
O844        O  0.34659992  0.91476836  0.28053706    -0.38200
O845        O  0.30323849  0.89098353  0.52125049    -0.38900
O846        O  0.30421848  0.92401568  0.52122277    -0.39000
C847        C  0.49868492  0.98389870  0.50115254    -0.11300
C848        C  0.51309469  0.00231522  0.46722088     0.05700
C849        C  0.50410976  0.01532355  0.44727836    -0.06600
C850        C  0.48110077  0.00949228  0.46099961    -0.07300
C851        C  0.46662843  0.99088639  0.49457395    -0.01900
C852        C  0.47580808  0.97820767  0.51511286     0.05000
N853        N  0.46256290  0.95998882  0.55143102     0.67500
H854        H  0.50520892  0.97382800  0.51734651     0.16400
H855        H  0.47451726  0.01953825  0.44493911     0.16100
N856        N  0.51774427  0.03415911  0.41231966     0.75200
O857        O  0.45192777  0.93828389  0.53935405    -0.38300
O858        O  0.46562745  0.96551676  0.59633623    -0.38200
O859        O  0.51387697  0.02973889  0.36706765    -0.38900
O860        O  0.52910311  0.05559503  0.42660098    -0.39000
C861        C  0.54339203  0.97478422  0.25306935    -0.11300
C862        C  0.56134109  0.99877171  0.26415595     0.05700
C863        C  0.57403433  0.01488713  0.22516072    -0.06600
C864        C  0.56947790  0.00660174  0.17678185    -0.07300
C865        C  0.55230552  0.98239127  0.16592771    -0.01900
C866        C  0.53885217  0.96651203  0.20467577     0.05000
N867        N  0.52056904  0.94197005  0.19582203     0.67500
H868        H  0.53318699  0.96201174  0.28220816     0.16400
H869        H  0.57988306  0.01926820  0.14759686     0.16100
N870        N  0.59165209  0.03965037  0.23369228     0.75200
O871        O  0.52585651  0.92656012  0.19670140    -0.38300
O872        O  0.49873422  0.93519607  0.19760299    -0.38200
O873        O  0.61368003  0.04767008  0.22753714    -0.38900
O874        O  0.58511179  0.05408595  0.23576942    -0.39000
C875        C  0.69047858  0.97882873  0.75291083    -0.11300
C876        C  0.66527749  0.96577640  0.75704772     0.05700
C877        C  0.65321051  0.97703551  0.74527317    -0.06600
C878        C  0.66634396  0.00079053  0.72981973    -0.07300
C879        C  0.69145914  0.01381058  0.72526357    -0.01900
C880        C  0.70363957  0.00268291  0.73684863     0.05000
N881        N  0.72929392  0.01547388  0.73410190     0.67500
H882        H  0.69997764  0.97037109  0.76121280     0.16400
H883        H  0.65671896  0.00910701  0.72127311     0.16100
N884        N  0.62762726  0.96481380  0.74929246     0.75200
O885        O  0.74155247  0.02750921  0.77057026    -0.38300
O886        O  0.73914513  0.01074516  0.70020310    -0.38200
O887        O  0.61857012  0.96872842  0.78611756    -0.38900
O888        O  0.61515755  0.95578859  0.71123951    -0.39000
C889        C  0.63237882  0.05715862  0.56631785    -0.11300
C890        C  0.63846041  0.05847669  0.51620671     0.05700
C891        C  0.66306603  0.07109734  0.50251574    -0.06600
C892        C  0.68075579  0.08076103  0.53897071    -0.07300
C893        C  0.67452409  0.07826950  0.58926645    -0.01900
C894        C  0.65000529  0.06679462  0.60265851     0.05000
N895        N  0.64241876  0.06249895  0.65303467     0.67500
H896        H  0.61360285  0.04748052  0.57774596     0.16400
H897        H  0.69948487  0.08936431  0.52787514     0.16100
N898        N  0.67037921  0.07252675  0.45233740     0.75200
O899        O  0.63627743  0.07529141  0.67356871    -0.38300
O900        O  0.63685563  0.04309691  0.67307984    -0.38200
O901        O  0.67800540  0.09154673  0.42831727    -0.38900
O902        O  0.67418828  0.05725171  0.43588481    -0.39000
C903        C  0.07919700  0.30686893  0.04577376    -0.11300
C904        C  0.08608816  0.32430855  0.00941538     0.05700
C905        C  0.09824778  0.34862434  0.02363976    -0.06600
C906        C  0.10211828  0.35479107  0.07333939    -0.07300
C907        C  0.09426099  0.33728703  0.10997646    -0.01900
C908        C  0.08329839  0.31307294  0.09556318     0.05000
N909        N  0.07587254  0.29439171  0.13076476     0.67500
H910        H  0.07018627  0.28821789  0.03567673     0.16400
H911        H  0.11056461  0.37339833  0.08324961     0.16100
N912        N  0.10539198  0.36727682  0.98853765     0.75200
O913        O  0.05411548  0.28186308  0.14470480    -0.38300
O914        O  0.08927444  0.28689042  0.13836437    -0.38200
O915        O  0.09217977  0.37509376  0.98219326    -0.38900
O916        O  0.12672180  0.37902878  0.97192886    -0.39000
C917        C  0.14340962  0.33482993  0.77362558    -0.11300
C918        C  0.12940268  0.31722939  0.80918769     0.05700
C919        C  0.13936941  0.30621927  0.83403505    -0.06600
C920        C  0.16325683  0.31380177  0.82470334    -0.07300
C921        C  0.17760507  0.33212505  0.79063392    -0.01900
C922        C  0.16719992  0.34218087  0.76381226     0.05000
N923        N  0.18022248  0.35948804  0.72576703     0.67500
H924        H  0.13595431  0.34311620  0.75344502     0.16400
H925        H  0.17070131  0.30557027  0.84510494     0.16100
N926        N  0.12595441  0.28801577  0.87034134     0.75200
O927        O  0.17996046  0.35244544  0.68256636    -0.38300
O928        O  0.18700528  0.38094865  0.73273981    -0.38200
O929        O  0.11811790  0.26654841  0.86011460    -0.38900
O930        O  0.12641156  0.29387470  0.91463624    -0.39000
C931        C  0.94548474  0.31726652  0.54471046    -0.11300
C932        C  0.95936160  0.30770847  0.55249710     0.05700
C933        C  0.98429691  0.32183755  0.54174966    -0.06600
C934        C  0.99488291  0.34528386  0.52501656    -0.07300
C935        C  0.98100030  0.35485667  0.51740275    -0.01900
C936        C  0.95598535  0.34047717  0.52642562     0.05000
N937        N  0.94105216  0.34928250  0.51835047     0.67500
H938        H  0.92621304  0.30643420  0.55148348     0.16400
H939        H  0.01418045  0.35617300  0.51841902     0.16100
N940        N  0.99923489  0.31289821  0.54845534     0.75200
O941        O  0.93230406  0.34720778  0.47636755    -0.38300
O942        O  0.93235783  0.35390025  0.55470677    -0.38200
O943        O  0.00594000  0.30649237  0.51146773    -0.38900
O944        O  0.00969423  0.31620390  0.58886119    -0.39000
C945        C  0.83357252  0.18584112  0.64892465    -0.11300
C946        C  0.84769268  0.17846512  0.62704499     0.05700
C947        C  0.83696886  0.15389423  0.61743738    -0.06600
C948        C  0.81270668  0.13748541  0.62905511    -0.07300
C949        C  0.79853173  0.14480618  0.65067242    -0.01900
C950        C  0.80928063  0.16933079  0.66101033     0.05000
N951        N  0.79600311  0.17786904  0.68407207     0.67500
H952        H  0.84135224  0.20454167  0.65674165     0.16400
H953        H  0.80504539  0.11879390  0.62136007     0.16100
N954        N  0.85034649  0.14508893  0.59612806     0.75200
O955        O  0.79631345  0.17986612  0.73023391    -0.38300
O956        O  0.78827726  0.18782664  0.65833312    -0.38200
O957        O  0.85814283  0.13571284  0.62349380    -0.38900
O958        O  0.84975241  0.14194509  0.55028941    -0.39000
C959        C  0.96366115  0.23937613  0.74015091    -0.11300
C960        C  0.96913512  0.23789416  0.69061551     0.05700
C961        C  0.99283700  0.24495724  0.67800475    -0.06600
C962        C  0.01075896  0.25489820  0.71385765    -0.07300
C963        C  0.00550092  0.25766391  0.76255906    -0.01900
C964        C  0.98154972  0.24910299  0.77601360     0.05000
N965        N  0.97574221  0.25298736  0.82438072     0.67500
H966        H  0.94565070  0.23424030  0.75067508     0.16400
H967        H  0.02918699  0.26172897  0.70296993     0.16100
N968        N  0.99963821  0.24458976  0.62815946     0.75200
O969        O  0.97482481  0.27099818  0.83287503    -0.38300
O970        O  0.97308132  0.23933674  0.85926837    -0.38200
O971        O  0.00683407  0.26257818  0.60087782    -0.38900
O972        O  0.00246342  0.22830675  0.61421542    -0.39000
C973        C  0.64489612  0.62445227  0.59819602    -0.11300
C974        C  0.63835741  0.62191868  0.54858885     0.05700
C975        C  0.65605028  0.62959286  0.51155130    -0.06600
C976        C  0.68023235  0.64189362  0.52463615    -0.07300
C977        C  0.68689764  0.64566753  0.57428715    -0.01900
C978        C  0.66899526  0.63573703  0.61128166     0.05000
N979        N  0.67496264  0.63791227  0.66209969     0.67500
H980        H  0.63125417  0.61790238  0.62687171     0.16400
H981        H  0.69388799  0.64894362  0.49592076     0.16100
N982        N  0.64993163  0.62619192  0.46072941     0.75200
O983        O  0.67537054  0.65388466  0.68761235    -0.38300
O984        O  0.67443416  0.62091393  0.68334078    -0.38200
O985        O  0.65346214  0.64360344  0.43534724    -0.38900
O986        O  0.64613276  0.60769029  0.43936914    -0.39000
C987        C  0.57849917  0.56569939  0.69369933    -0.11300
C988        C  0.56189761  0.57200036  0.68444995     0.05700
C989        C  0.54862916  0.57283091  0.72418466    -0.06600
C990        C  0.55201789  0.56722856  0.77165153    -0.07300
C991        C  0.56901728  0.56141198  0.78101931    -0.01900
C992        C  0.58238343  0.56076271  0.74121857     0.05000
N993        N  0.60102979  0.55664231  0.74841701     0.67500
H994        H  0.58934730  0.56545003  0.66399768     0.16400
H995        H  0.54164967  0.56810439  0.80157227     0.16100
N996        N  0.53189041  0.57956172  0.71738114     0.75200
O997        O  0.59760158  0.53684194  0.73600326    -0.38300
O998        O  0.62220160  0.57421571  0.75611507    -0.38200
O999        O  0.50989571  0.56351661  0.71179970    -0.38900
O1000       O  0.53801556  0.60052622  0.72804611    -0.39000
C1001       C  0.66124103  0.67712096  0.19716724    -0.11300
C1002       C  0.67428070  0.70018793  0.21735747     0.05700
C1003       C  0.69948986  0.71212525  0.22203714    -0.06600
C1004       C  0.71075622  0.70022165  0.20948770    -0.07300
C1005       C  0.69725948  0.67662522  0.19223410    -0.01900
C1006       C  0.67245247  0.66538386  0.18451706     0.05000
N1007       N  0.65829299  0.64194416  0.16403736     0.67500
H1008       H  0.64200537  0.66777915  0.19181847     0.16400
H1009       H  0.72990800  0.70906446  0.21533068     0.16100
N1010       N  0.71390214  0.73617937  0.23928158     0.75200
O1011       O  0.64386887  0.62457563  0.19156345    -0.38300
O1012       O  0.65573735  0.63970768  0.11806794    -0.38200
O1013       O  0.72164785  0.74009364  0.28263774    -0.38900
O1014       O  0.72314208  0.75319300  0.20862779    -0.39000
C1015       C  0.64183744  0.74889916  0.01134699    -0.11300
C1016       C  0.66673525  0.76160936  0.00074977     0.05700
C1017       C  0.68301171  0.77128744  0.03985330    -0.06600
C1018       C  0.67418129  0.76685843  0.08821751    -0.07300
C1019       C  0.64924835  0.75264407  0.09880144    -0.01900
C1020       C  0.63301823  0.74428382  0.05963355     0.05000
N1021       N  0.60756454  0.73079570  0.06789207     0.67500
H1022       H  0.62889193  0.74179507  0.98198894     0.16400
H1023       H  0.68709420  0.77373504  0.11763153     0.16100
N1024       N  0.70846993  0.78483212  0.03151353     0.75200
O1025       O  0.59697067  0.74161945  0.07072758    -0.38300
O1026       O  0.59536473  0.70851209  0.06068728    -0.38200
O1027       O  0.72049221  0.80725716  0.03653417    -0.38900
O1028       O  0.71928547  0.77420544  0.02980002    -0.39000
C1029       C  0.58572708  0.68411740  0.40667172    -0.11300
C1030       C  0.58279703  0.67725826  0.35701083     0.05700
C1031       C  0.56829789  0.65271287  0.34559728    -0.06600
C1032       C  0.55948338  0.63569144  0.38347560    -0.07300
C1033       C  0.56459900  0.64253905  0.43297453    -0.01900
C1034       C  0.57659372  0.66704175  0.44465264     0.05000
N1035       N  0.58179639  0.67507791  0.49435844     0.67500
H1036       H  0.59654499  0.70295454  0.41614678     0.16400
H1037       H  0.54991379  0.61690207  0.37376109     0.16100
N1038       N  0.56460913  0.64467495  0.29585475     0.75200
O1039       O  0.60103765  0.67951186  0.51329699    -0.38300
O1040       O  0.57017889  0.68266956  0.51498500    -0.38200
O1041       O  0.57571337  0.63575639  0.27890203    -0.38900
O1042       O  0.54680407  0.64171538  0.27299771    -0.39000
C1043       C  0.33606776  0.34370194  0.36344260    -0.11300
C1044       C  0.34572270  0.36277638  0.39710202     0.05700
C1045       C  0.33161103  0.37160844  0.41192887    -0.06600
C1046       C  0.30832063  0.36110470  0.39380844    -0.07300
C1047       C  0.29871635  0.34175355  0.36146285    -0.01900
C1048       C  0.31276913  0.33320210  0.34570966     0.05000
N1049       N  0.30347588  0.31383624  0.31167973     0.67500
H1050       H  0.34661369  0.33683020  0.35063911     0.16400
H1051       H  0.29721604  0.36725973  0.40716392     0.16100
N1052       N  0.34024254  0.39062736  0.44651205     0.75200
O1053       O  0.30063141  0.31707826  0.26732947    -0.38300
O1054       O  0.29562277  0.29297769  0.32696846    -0.38200
O1055       O  0.34951472  0.41176807  0.43128199    -0.38900
O1056       O  0.33449746  0.38579559  0.49134278    -0.39000
C1057       C  0.49728205  0.48084295  0.44859487    -0.11300
C1058       C  0.47524662  0.46900676  0.47465674     0.05700
C1059       C  0.47077175  0.48210959  0.50869626    -0.06600
C1060       C  0.48793451  0.50651280  0.51529278    -0.07300
C1061       C  0.50990591  0.51837170  0.48910644    -0.01900
C1062       C  0.51457012  0.50521607  0.45556937     0.05000
N1063       N  0.53655467  0.51627484  0.42770786     0.67500
H1064       H  0.50105552  0.47125478  0.42195558     0.16400
H1065       H  0.48416728  0.51607804  0.54201054     0.16100
N1066       N  0.44926775  0.47086765  0.53810744     0.75200
O1067       O  0.55352473  0.51473351  0.44256515    -0.38300
O1068       O  0.53713918  0.52306476  0.38420998    -0.38200
O1069       O  0.44927605  0.46313315  0.58032053    -0.38900
O1070       O  0.43250591  0.47344014  0.52680108    -0.39000
C1071       C  0.41717686  0.40640236  0.18880301    -0.11300
C1072       C  0.41049798  0.42276282  0.18071725     0.05700
C1073       C  0.41093828  0.43642906  0.22057992    -0.06600
C1074       C  0.41731934  0.43310445  0.26723108    -0.07300
C1075       C  0.42289686  0.41593829  0.27578299    -0.01900
C1076       C  0.42306657  0.40270668  0.23561170     0.05000
N1077       N  0.42752170  0.38431656  0.24190102     0.67500
H1078       H  0.41694828  0.39557969  0.15890655     0.16400
H1079       H  0.41710323  0.44358920  0.29733596     0.16100
N1080       N  0.40455508  0.45342812  0.21484219     0.75200
O1081       O  0.41010226  0.36328807  0.25168683    -0.38300
O1082       O  0.44716783  0.38774429  0.22656674    -0.38200
O1083       O  0.38402688  0.44805353  0.22913201    -0.38900
O1084       O  0.42083608  0.47503046  0.20604900    -0.39000
C1085       C  0.26549415  0.28557165  0.74412130    -0.11300
C1086       C  0.28125191  0.31030945  0.75154746     0.05700
C1087       C  0.30613740  0.32115732  0.74304084    -0.06600
C1088       C  0.31465000  0.30746523  0.72610577    -0.07300
C1089       C  0.29895990  0.28288851  0.71730565    -0.01900
C1090       C  0.27410306  0.27179518  0.72705655     0.05000
N1091       N  0.25749176  0.24660232  0.72136547     0.67500
H1092       H  0.24628617  0.27695454  0.75029336     0.16400
H1093       H  0.33387356  0.31628723  0.71970282     0.16100
N1094       N  0.32314843  0.34603863  0.75196629     0.75200
O1095       O  0.25258152  0.23296309  0.75780092    -0.38300
O1096       O  0.24375613  0.23889790  0.68482692    -0.38200
O1097       O  0.33376131  0.35245649  0.79263982    -0.38900
O1098       O  0.33153042  0.36050589  0.71620721    -0.39000
C1099       C  0.28926899  0.21498551  0.84721141    -0.11300
C1100       C  0.31380240  0.22496173  0.83614541     0.05700
C1101       C  0.32957406  0.22970125  0.87494620    -0.06600
C1102       C  0.32100406  0.22581109  0.92347890    -0.07300
C1103       C  0.29681803  0.21731275  0.93473233    -0.01900
C1104       C  0.28069561  0.21115956  0.89581615     0.05000
N1105       N  0.25592098  0.20229480  0.90466682     0.67500
H1106       H  0.27669030  0.21099822  0.81806027     0.16400
H1107       H  0.33367642  0.23017039  0.95264489     0.16100
N1108       N  0.35437019  0.23868974  0.86602826     0.75200
O1109       O  0.24912241  0.21650567  0.90236059    -0.38300
O1110       O  0.24043071  0.18005300  0.90304517    -0.38200
O1111       O  0.37012081  0.26054778  0.87317593    -0.38900
O1112       O  0.36074120  0.22417084  0.86195330    -0.39000
C1113       C  0.40376846  0.32255689  0.60421320    -0.11300
C1114       C  0.38772612  0.29993847  0.58367151     0.05700
C1115       C  0.38655084  0.29791922  0.53184226    -0.06600
C1116       C  0.39963933  0.31848229  0.50219911    -0.07300
C1117       C  0.41342017  0.34132838  0.52309095    -0.01900
C1118       C  0.41629152  0.34318014  0.57457844     0.05000
N1119       N  0.43118112  0.36592509  0.59760593     0.67500
H1120       H  0.40525728  0.32455349  0.64370664     0.16400
H1121       H  0.39730057  0.31667065  0.46280785     0.16100
N1122       N  0.37140418  0.27531278  0.50850963     0.75200
O1123       O  0.42175931  0.37653836  0.61447670    -0.38300
O1124       O  0.45193846  0.37235730  0.61137247    -0.38200
O1125       O  0.35092388  0.26943688  0.49397333    -0.38900
O1126       O  0.38067194  0.26461024  0.49131589    -0.39000
C1127       C  0.36091884  0.04839518  0.57983909    -0.11300
C1128       C  0.33776959  0.03642637  0.55933853     0.05700
C1129       C  0.33029687  0.01644371  0.52860031    -0.06600
C1130       C  0.34563396  0.00885451  0.51944363    -0.07300
C1131       C  0.36816726  0.02024487  0.54107084    -0.01900
C1132       C  0.37605245  0.04022796  0.57128689     0.05000
N1133       N  0.39849182  0.05114970  0.59614869     0.67500
H1134       H  0.36701928  0.06367869  0.60365035     0.16400
H1135       H  0.33924971  0.99290717  0.49748524     0.16100
N1136       N  0.30664454  0.00258979  0.50872358     0.75200
O1137       O  0.41774382  0.06652686  0.57406372    -0.38300
O1138       O  0.39948281  0.04277366  0.63685095    -0.38200
O1139       O  0.30371528  0.00443726  0.46364810    -0.38900
O1140       O  0.29002374  0.98509345  0.53310128    -0.39000
C1141       C  0.32960473  0.10251682  0.41553624    -0.11300
C1142       C  0.30594033  0.08294561  0.42570753     0.05700
C1143       C  0.29090078  0.07015585  0.38596577    -0.06600
C1144       C  0.30014199  0.07597138  0.33786631    -0.07300
C1145       C  0.32425551  0.09459940  0.32787604    -0.01900
C1146       C  0.33876964  0.10848602  0.36734874     0.05000
N1147       N  0.36268257  0.12886782  0.35942545     0.67500
H1148       H  0.34136402  0.11311141  0.44523052     0.16400
H1149       H  0.28839028  0.06527393  0.30825235     0.16100
N1150       N  0.26640274  0.05084409  0.39349773     0.75200
O1151       O  0.36605981  0.14925939  0.35517293    -0.38300
O1152       O  0.38034542  0.12733950  0.36823734    -0.38200
O1153       O  0.24979683  0.05405678  0.38499274    -0.56900
O1154       O  0.26134580  0.02980621  0.39799559    -0.39000
C1155       C  0.32161549  0.14250577  0.65870081    -0.11300
C1156       C  0.30197462  0.12781470  0.62824922     0.05700
C1157       C  0.28890575  0.13688751  0.60906946    -0.06600
C1158       C  0.29614030  0.16040267  0.61913641    -0.07300
C1159       C  0.31623646  0.17535322  0.64829385    -0.01900
C1160       C  0.32876263  0.16597594  0.66906484     0.05000
N1161       N  0.34870696  0.17984982  0.70093205     0.67500
H1162       H  0.33172800  0.13586978  0.67433108     0.16400
H1163       H  0.28604878  0.16703072  0.60338205     0.16100
N1164       N  0.26871632  0.12286275  0.57792773     0.75200
O1165       O  0.34498207  0.17932876  0.74665379    -0.38300
O1166       O  0.36979860  0.18816309  0.68499651    -0.38200
O1167       O  0.24770252  0.11360985  0.59529974    -0.38900
O1168       O  0.27192310  0.12409404  0.53193942    -0.39000
C1169       C  0.31343004  0.95171470  0.89496139    -0.11300
C1170       C  0.30214901  0.96414034  0.89002662     0.05700
C1171       C  0.31420722  0.98809482  0.90604325    -0.06600
C1172       C  0.33744420  0.99932331  0.92455977    -0.07300
C1173       C  0.34890348  0.98704435  0.92858927    -0.01900
C1174       C  0.33648133  0.96281935  0.91463076     0.05000
N1175       N  0.34728294  0.94947908  0.91842529     0.67500
H1176       H  0.30414003  0.93306931  0.88423510     0.16400
H1177       H  0.34682122  0.01802185  0.93495861     0.16100
N1178       N  0.30352977  0.00157268  0.90226519     0.75200
O1179       O  0.34253199  0.93622268  0.95546542    -0.38300
O1180       O  0.35676252  0.94672598  0.88076637    -0.38200
O1181       O  0.29564396  0.00585375  0.94055989    -0.38900
O1182       O  0.30681303  0.01339129  0.86357344    -0.39000
C1183       C  0.22039792  0.96335530  0.70535878    -0.11300
C1184       C  0.22488289  0.96976614  0.75515979     0.05700
C1185       C  0.23537870  0.99390159  0.76814371    -0.06600
C1186       C  0.24331449  0.01130313  0.73123706    -0.07300
C1187       C  0.24092140  0.00518630  0.68119848    -0.01900
C1188       C  0.22812345  0.98076140  0.66839330     0.05000
N1189       N  0.22512526  0.97346443  0.61818607     0.67500
H1190       H  0.21227199  0.94482162  0.69479740     0.16400
H1191       H  0.25296193  0.02997670  0.74187305     0.16100
N1192       N  0.24093427  0.00145380  0.81806656     0.75200
O1193       O  0.24047941  0.97061515  0.59765812    -0.38300
O1194       O  0.20501195  0.96508256  0.59823150    -0.38200
O1195       O  0.26203642  0.01021638  0.83316986    -0.38900
O1196       O  0.22642579  0.00382904  0.84359182    -0.39000
C1197       C  0.24215255  0.89424199  0.01706739    -0.11300
C1198       C  0.22520184  0.90004654  0.00725458     0.05700
C1199       C  0.21163668  0.90063337  0.04665566    -0.06600
C1200       C  0.21567632  0.89617345  0.09449475    -0.07300
C1201       C  0.23359072  0.89171445  0.10469776    -0.01900
C1202       C  0.24658155  0.89030296  0.06506568     0.05000
N1203       N  0.26509719  0.88603972  0.07274534     0.67500
H1204       H  0.25284642  0.89365380  0.98747547     0.16400
H1205       H  0.20535296  0.89735109  0.12409604     0.16100
N1206       N  0.19423210  0.90645084  0.03926543     0.75200
O1207       O  0.25982732  0.86483703  0.07268255    -0.38300
O1208       O  0.28687448  0.90316803  0.06864282    -0.38200
O1209       O  0.17219046  0.88986870  0.03800191    -0.38900
O1210       O  0.20023131  0.92772999  0.04539736    -0.39000
C1211       C  0.93494329  0.61922369  0.07069590    -0.11300
C1212       C  0.94955243  0.64413894  0.07676115     0.05700
C1213       C  0.97472622  0.65600440  0.07135545    -0.06600
C1214       C  0.98471793  0.64315515  0.05849408    -0.07300
C1215       C  0.97021802  0.61846306  0.05032539    -0.01900
C1216       C  0.94504871  0.60631056  0.05720349     0.05000
N1217       N  0.92958575  0.58100072  0.05121823     0.67500
H1218       H  0.91551827  0.60984373  0.07456818     0.16400
H1219       H  0.00414501  0.65282583  0.05399423     0.16100
N1220       N  0.99052678  0.68121726  0.07818388     0.75200
O1221       O  0.92399417  0.56749001  0.08815556    -0.38300
O1222       O  0.91759230  0.57271084  0.01239720    -0.38200
O1223       O  0.00061689  0.68898420  0.11909617    -0.38900
O1224       O  0.99905562  0.69468357  0.04087046    -0.39000
C1225       C  0.96696714  0.54618733  0.18054248    -0.11300
C1226       C  0.99179320  0.56200471  0.17013895     0.05700
C1227       C  0.00788734  0.57157489  0.20958252    -0.06600
C1228       C  0.99894732  0.56632339  0.25779612    -0.07300
C1229       C  0.97402887  0.55182715  0.26823835    -0.01900
C1230       C  0.95799820  0.54113662  0.22890244     0.05000
N1231       N  0.93259475  0.52565686  0.23701603     0.67500
H1232       H  0.95417180  0.53835422  0.15097635     0.16400
H1233       H  0.01177417  0.57454953  0.28723248     0.16100
N1234       N  0.03328670  0.58726679  0.20172419     0.75200
O1235       O  0.91979673  0.53419072  0.23594867    -0.38300
O1236       O  0.92261547  0.50332258  0.23391230    -0.38200
O1237       O  0.04359119  0.60923334  0.21123518    -0.38900
O1238       O  0.04579338  0.57852787  0.19634044    -0.39000
C1239       C  0.00261945  0.70787121  0.71584823    -0.11300
C1240       C  0.01114057  0.69413577  0.73280270     0.05700
C1241       C  0.99549675  0.66908731  0.73495354    -0.06600
C1242       C  0.97185342  0.65816834  0.71958727    -0.07300
C1243       C  0.96319330  0.67170391  0.70191766    -0.01900
C1244       C  0.97882713  0.69689293  0.70020995     0.05000
N1245       N  0.97088535  0.71159295  0.68350693     0.67500
H1246       H  0.01468223  0.72719127  0.71337968     0.16400
H1247       H  0.96015239  0.63881732  0.72183167     0.16100
N1248       N  0.00316687  0.65449632  0.75389781     0.75200
O1249       O  0.96349875  0.72027809  0.71448545    -0.38300
O1250       O  0.97644854  0.72022254  0.64057656    -0.38200
O1251       O  0.00125952  0.65012591  0.79940539    -0.38900
O1252       O  0.00714994  0.64233083  0.72475316    -0.39000
C1253       C  0.16254665  0.81331480  0.76416578    -0.11300
C1254       C  0.14151100  0.80058385  0.79325298     0.05700
C1255       C  0.13778909  0.81253594  0.83140725    -0.06600
C1256       C  0.15480278  0.83682408  0.83925116    -0.07300
C1257       C  0.17571002  0.84968936  0.80977527    -0.01900
C1258       C  0.17952288  0.83768305  0.77182902     0.05000
N1259       N  0.19981091  0.85009108  0.73911973     0.67500
H1260       H  0.16548330  0.80455304  0.73411233     0.16400
H1261       H  0.15174712  0.84553138  0.86923458     0.16100
N1262       N  0.11720691  0.80022057  0.86344390     0.75200
O1263       O  0.21646119  0.84648284  0.74202693    -0.38300
O1264       O  0.19830452  0.85980040  0.70093290    -0.38200
O1265       O  0.11860549  0.79148225  0.90325740    -0.38900
O1266       O  0.09983302  0.80251229  0.85719965    -0.39000
C1267       C  0.07008145  0.65456503  0.83120582    -0.11300
C1268       C  0.08310995  0.67820694  0.84812930     0.05700
C1269       C  0.08643633  0.68235808  0.89922975    -0.06600
C1270       C  0.07511239  0.66302779  0.93233103    -0.07300
C1271       C  0.05993999  0.63949567  0.91543553    -0.01900
C1272       C  0.05821477  0.63528462  0.86423926     0.05000
N1273       N  0.04360011  0.61161645  0.84498603     0.67500
H1274       H  0.06728307  0.65102405  0.79223656     0.16400
H1275       H  0.07683409  0.66660375  0.97136372     0.16100
N1276       N  0.10042049  0.70613437  0.91820256     0.75200
O1277       O  0.02201620  0.60340457  0.83417476    -0.38300
O1278       O  0.05358392  0.60153566  0.82820463    -0.38200
O1279       O  0.08994138  0.71538172  0.93681894    -0.38900
O1280       O  0.12259771  0.71574151  0.92541737    -0.39000
C1281       C  0.07891228  0.76143646  0.58447964    -0.11300
C1282       C  0.08876922  0.74772702  0.59240811     0.05700
C1283       C  0.09485995  0.73919978  0.55120368    -0.06600
C1284       C  0.09049242  0.74397824  0.50383949    -0.07300
C1285       C  0.07969113  0.75683082  0.49622778    -0.01900
C1286       C  0.07417416  0.76582906  0.53728098     0.05000
N1287       N  0.06314223  0.77889973  0.53205816     0.67500
H1288       H  0.07406220  0.76830647  0.61524743     0.16400
H1289       H  0.09487705  0.73678640  0.47290301     0.16100
N1290       N  0.10458915  0.72493033  0.55642555     0.75200
O1291       O  0.04063093  0.76823111  0.53755071    -0.38300
O1292       O  0.07609088  0.80146491  0.53128666    -0.38200
O1293       O  0.09089846  0.70253254  0.55171718    -0.38900
O1294       O  0.12708683  0.73481493  0.55332992    -0.39000
C1295       C  0.03793286  0.38755245  0.90780179    -0.11300
C1296       C  0.01436294  0.37443459  0.92706807     0.05700
C1297       C  0.00287855  0.34979650  0.93603682    -0.06600
C1298       C  0.01386429  0.33818833  0.92083221    -0.07300
C1299       C  0.03659468  0.35072176  0.89760855    -0.01900
C1300       C  0.04924246  0.37588869  0.89328669     0.05000
N1301       N  0.07331363  0.38982416  0.87411173     0.67500
H1302       H  0.04694737  0.40654488  0.90103195     0.16400
H1303       H  0.00419067  0.31906709  0.92666074     0.16100
N1304       N  0.97969245  0.33614950  0.95951954     0.75200
O1305       O  0.07677107  0.39360904  0.82844261    -0.38300
O1306       O  0.09045930  0.40255326  0.90293938    -0.38200
O1307       O  0.96255181  0.31818819  0.93802967    -0.38900
O1308       O  0.97774670  0.33895913  0.00481916    -0.39000
C1309       C  0.00661619  0.48959133  0.96285052    -0.11300
C1310       C  0.98301823  0.47170458  0.94961916     0.05700
C1311       C  0.96604301  0.47786327  0.94352361    -0.06600
C1312       C  0.97271950  0.50132405  0.95231408    -0.07300
C1313       C  0.99617341  0.51904634  0.96674107    -0.01900
C1314       C  0.01337540  0.51308080  0.97093916     0.05000
N1315       N  0.03791672  0.53064904  0.98242294     0.67500
H1316       H  0.02012866  0.48547030  0.96628438     0.16400
H1317       H  0.95922851  0.50547608  0.94895426     0.16100
N1318       N  0.94178472  0.46051736  0.92984899     0.75200
O1319       O  0.04523433  0.53165785  0.02546027    -0.38300
O1320       O  0.05307674  0.54124929  0.94791489    -0.38200
O1321       O  0.92551281  0.45125520  0.96267817    -0.38900
O1322       O  0.93593612  0.45908333  0.88543525    -0.39000
C1323       C  0.97233658  0.41160762  0.72367240    -0.11300
C1324       C  0.99026445  0.41907792  0.75874188     0.05700
C1325       C  0.01465840  0.43171254  0.74262962    -0.06600
C1326       C  0.02039434  0.43584577  0.69232751    -0.07300
C1327       C  0.00234593  0.42782370  0.65713846    -0.01900
C1328       C  0.97804764  0.41595447  0.67358975     0.05000
N1329       N  0.95871415  0.40791830  0.64016771     0.67500
H1330       H  0.95357507  0.40222371  0.73506580     0.16400
H1331       H  0.03911558  0.44500212  0.68079412     0.16100
N1332       N  0.03389092  0.44017832  0.77656519     0.75200
O1333       O  0.94514449  0.38586120  0.63128635    -0.38300
O1334       O  0.95153082  0.42138765  0.63063191    -0.38200
O1335       O  0.04289965  0.42811544  0.78391243    -0.38900
O1336       O  0.04477635  0.46150184  0.79142627    -0.39000
C1337       C  0.00621203  0.29109863  0.21981385    -0.11300
C1338       C  0.01681850  0.31446709  0.23767476     0.05700
C1339       C  0.00427431  0.32575114  0.23442678    -0.06600
C1340       C  0.98175891  0.31388530  0.21295655    -0.07300
C1341       C  0.97080764  0.29043923  0.19530222    -0.01900
C1342       C  0.98332675  0.27899125  0.19854122     0.05000
N1343       N  0.97317376  0.25521518  0.18091747     0.67500
H1344       H  0.01600092  0.28249742  0.22101146     0.16400
H1345       H  0.97251353  0.32303160  0.21151324     0.16100
N1346       N  0.01371934  0.34897446  0.25464315     0.75200
O1347       O  0.97921707  0.25218588  0.13879803    -0.38300
O1348       O  0.96306724  0.23793688  0.21093653    -0.38200
O1349       O  0.02196968  0.36673858  0.22616862    -0.38900
O1350       O  0.00857404  0.35070330  0.29859134    -0.39000
C1351       C  0.91622761  0.34997836  0.05741949    -0.11300
C1352       C  0.91615426  0.34570541  0.00676419     0.05700
C1353       C  0.90439886  0.32178139  0.99065764    -0.06600
C1354       C  0.89569058  0.30318865  0.02520029    -0.07300
C1355       C  0.89792195  0.30774952  0.07596537    -0.01900
C1356       C  0.90711272  0.33132764  0.09195677     0.05000
N1357       N  0.90956354  0.33711798  0.14302628     0.67500
H1358       H  0.92487872  0.36818547  0.07065350     0.16400
H1359       H  0.88824160  0.28513817  0.01204902     0.16100
N1360       N  0.90295293  0.31614851  0.93961272     0.75200
O1361       O  0.92928315  0.34439100  0.16376549    -0.38300
O1362       O  0.89437928  0.34009666  0.16394817    -0.38200
O1363       O  0.91705805  0.31101529  0.92130671    -0.38900
O1364       O  0.88455897  0.31118963  0.91608691    -0.39000
C1365       C  0.90510648  0.22576250  0.33851697    -0.11300
C1366       C  0.89595789  0.23990797  0.32824007     0.05700
C1367       C  0.89018388  0.24953773  0.36780583    -0.06600
C1368       C  0.89377327  0.24509942  0.41603934    -0.07300
C1369       C  0.90348346  0.23145424  0.42633459    -0.01900
C1370       C  0.90895592  0.22155052  0.38679024     0.05000
N1371       N  0.91841368  0.20719730  0.39467197     0.67500
H1372       H  0.90962301  0.21804339  0.30888050     0.16400
H1373       H  0.88959332  0.25314551  0.44557578     0.16100
N1374       N  0.88150006  0.26457195  0.35994357     0.75200
O1375       O  0.90409316  0.18500391  0.40190495    -0.38300
O1376       O  0.94017242  0.21553459  0.38396636    -0.38200
O1377       O  0.85978728  0.25677492  0.36980261    -0.38900
O1378       O  0.89634682  0.28669797  0.35282441    -0.39000
C1379       C  0.63101240  0.01564863  0.08582156    -0.11300
C1380       C  0.62626856  0.01261466  0.03521806     0.05700
C1381       C  0.64548944  0.02340752  0.00111879    -0.06600
C1382       C  0.66906850  0.03521950  0.01824959    -0.07300
C1383       C  0.67366574  0.03648973  0.06886216    -0.01900
C1384       C  0.65453510  0.02754714  0.10290796     0.05000
N1385       N  0.65840080  0.02813095  0.15454842     0.67500
H1386       H  0.61627402  0.00768161  0.11231603     0.16400
H1387       H  0.68379327  0.04231134  0.99183863     0.16100
N1388       N  0.64143478  0.02057251  0.94939123     0.75200
O1389       O  0.65787839  0.04342713  0.18069152    -0.38300
O1390       O  0.65672263  0.01038011  0.17497751    -0.38200
O1391       O  0.64718358  0.03857169  0.92334886    -0.38900
O1392       O  0.63746558  0.00183584  0.92883662    -0.39000
C1393       C  0.79695765  0.14754307  0.15552875    -0.11300
C1394       C  0.80404612  0.13204155  0.14180306     0.05700
C1395       C  0.82861159  0.14180432  0.13117636    -0.06600
C1396       C  0.84522354  0.16656157  0.13287869    -0.07300
C1397       C  0.83804353  0.18208105  0.14562841    -0.01900
C1398       C  0.81359291  0.17228377  0.15753926     0.05000
N1399       N  0.80510483  0.18712078  0.17040717     0.67500
H1400       H  0.77820895  0.14055973  0.16340155     0.16400
H1401       H  0.86397858  0.17359405  0.12493548     0.16100
N1402       N  0.83717842  0.12694962  0.11921164     0.75200
O1403       O  0.79502288  0.19211012  0.13828059    -0.38300
O1404       O  0.80283617  0.19061223  0.21515870    -0.38200
O1405       O  0.84115028  0.12456167  0.07480540    -0.38900
O1406       O  0.84598405  0.12111592  0.15261092    -0.39000
C1407       C  0.74459679  0.09793525  0.93794760    -0.11300
C1408       C  0.75422343  0.08415238  0.94766751     0.05700
C1409       C  0.76110402  0.07571566  0.90770145    -0.06600
C1410       C  0.75717501  0.08005778  0.85971101    -0.07300
C1411       C  0.74624180  0.09261268  0.84999678    -0.01900
C1412       C  0.74052055  0.10215034  0.88983378     0.05000
N1413       N  0.73033290  0.11587883  0.88240333     0.67500
H1414       H  0.73940492  0.10492675  0.96792434     0.16400
H1415       H  0.76203060  0.07270383  0.82987634     0.16100
N1416       N  0.77152388  0.06218147  0.91486092     0.75200
O1417       O  0.70821194  0.10652520  0.89119353    -0.38300
O1418       O  0.74409736  0.13828943  0.87755485    -0.38200
O1419       O  0.75811613  0.03963000  0.91541772    -0.38900
O1420       O  0.79397037  0.07230479  0.90938810    -0.39000
C1421       C  0.60420799  0.92791780  0.42279973    -0.11300
C1422       C  0.61263284  0.92796225  0.37525945     0.05700
C1423       C  0.60950972  0.93997335  0.33709439    -0.06600
C1424       C  0.60026649  0.95382298  0.34795556    -0.07300
C1425       C  0.59359038  0.95542372  0.39639578    -0.01900
C1426       C  0.59433319  0.94125305  0.43353523     0.05000
N1427       N  0.58755209  0.94209916  0.48314356     0.67500
H1428       H  0.60672543  0.91874039  0.45229319     0.16400
H1429       H  0.59939269  0.96427289  0.31885595     0.16100
N1430       N  0.61825019  0.94052470  0.28850270     0.75200
O1431       O  0.56688296  0.92587716  0.49872350    -0.38300
O1432       O  0.60362394  0.95539560  0.51357111    -0.38200
O1433       O  0.60598505  0.92303969  0.26012160    -0.38900
O1434       O  0.63928699  0.95722291  0.27587166    -0.39000
C1435       C  0.62540969  0.87471703  0.58959356    -0.11300
C1436       C  0.64354995  0.88996640  0.62234174     0.05700
C1437       C  0.66719137  0.90612944  0.60358732    -0.06600
C1438       C  0.67176258  0.90749028  0.55289320    -0.07300
C1439       C  0.65333438  0.89293661  0.51992096    -0.01900
C1440       C  0.63003839  0.87585521  0.53906713     0.05000
N1441       N  0.61061432  0.85967417  0.50796206     0.67500
H1442       H  0.60734803  0.86185972  0.60312735     0.16400
H1443       H  0.68973939  0.92057015  0.53927337     0.16100
N1444       N  0.68671355  0.92189441  0.63496440     0.75200
O1445       O  0.60746225  0.83975911  0.49775781    -0.38300
O1446       O  0.59377032  0.86269388  0.50086870    -0.38200
O1447       O  0.70260543  0.91767856  0.64366841    -0.38900
O1448       O  0.69103715  0.94238998  0.64396525    -0.39000
C1449       C  0.70834974  0.96032797  0.21058458    -0.11300
C1450       C  0.71376378  0.96490424  0.26084722     0.05700
C1451       C  0.73168331  0.98843454  0.27512192    -0.06600
C1452       C  0.74171090  0.00705430  0.24033593    -0.07300
C1453       C  0.73482588  0.00267769  0.19086321    -0.01900
C1454       C  0.71879247  0.97885095  0.17565392     0.05000
N1455       N  0.71108288  0.97334747  0.12586367     0.67500
H1456       H  0.69497918  0.94236250  0.19842603     0.16400
H1457       H  0.75426182  0.02523810  0.25252302     0.16100
N1458       N  0.73899656  0.99405243  0.32507424     0.75200
O1459       O  0.72079269  0.96604317  0.09735797    -0.38300
O1460       O  0.69148958  0.97065974  0.11388971    -0.38200
O1461       O  0.75796795  0.99575853  0.33835176    -0.38900
O1462       O  0.72967672  0.00215045  0.35248634    -0.39000
C1463       C  0.63124936  0.82382315  0.30502508    -0.11300
C1464       C  0.65474163  0.84250459  0.31686770     0.05700
C1465       C  0.67302256  0.83790381  0.31857955    -0.06600
C1466       C  0.66745925  0.81491013  0.30875946    -0.07300
C1467       C  0.64391217  0.79623017  0.29716612    -0.01900
C1468       C  0.62566452  0.80085488  0.29555574     0.05000
N1469       N  0.60116376  0.78231021  0.28625367     0.67500
H1470       H  0.61685083  0.82681288  0.30433199     0.16400
H1471       H  0.68178400  0.81181299  0.30945463     0.16100
N1472       N  0.69735809  0.85632052  0.32953539     0.75200
O1473       O  0.58722633  0.77068590  0.32191402    -0.38300
O1474       O  0.59242643  0.78100222  0.24459613    -0.38200
O1475       O  0.70546125  0.85702753  0.37160528    -0.38900
O1476       O  0.71182225  0.86845847  0.29491740    -0.39000
loop_ 
_geom_bond_atom_site_label_1 
_geom_bond_atom_site_label_2 
_geom_bond_distance 
_geom_bond_site_symmetry_2 
_ccdc_geom_bond_type 
O1            C4   1.269       .  A
O1           Cd6   2.405       .  S
C2           O11   1.263       .  A
C2            O7   1.269       .  A
C2         C1422   1.460       .  S
O3            C9   1.275       .  A
O3           Cd6   2.478       .  S
C4           O12   1.268       .  A
C4         C1464   1.475       .  S
C5           O10   1.272       .  A
C5            O8   1.265       .  A
C5         C1450   1.490       .  S
Cd6          O13   2.412       .  S
Cd6          O12   2.436       .  S
Cd6          O11   2.382       .  S
Cd6           O7   2.475       .  S
Cd6          O10   2.512       .  S
Cd6           O8   2.420       .  S
C9           O13   1.264       .  A
C9         C1439   1.486       .  S
O14          C17   1.271       .  A
O14         Cd19   2.416       .  S
C15          O24   1.263       .  A
C15          O20   1.272       .  A
C15        C1383   1.465       .  S
O16          C22   1.277   1_554  A
O16         Cd19   2.493       .  S
C17          O25   1.270       .  A
C17        C1394   1.481       .  S
C18          O23   1.272       .  A
C18          O21   1.265       .  A
C18        C1453   1.483       .  S
Cd19         O26   2.379       .  S
Cd19         O25   2.439       .  S
Cd19         O24   2.370       .  S
Cd19         O20   2.484       .  S
Cd19         O23   2.506       .  S
Cd19         O21   2.427       .  S
C22          O26   1.264   1_556  A
C22        C1408   1.485       .  S
O27          C30   1.272       .  A
O27         Cd32   2.420       .  S
C28          O37   1.265       .  A
C28          O33   1.273       .  A
C28        C1341   1.477       .  S
O29          C35   1.272       .  A
O29         Cd32   2.497       .  S
C30          O38   1.269       .  A
C30        C1397   1.479       .  S
C31          O36   1.277       .  A
C31          O34   1.263       .  A
C31        C1366   1.485       .  S
Cd32         O39   2.431       .  S
Cd32         O38   2.425       .  S
Cd32         O37   2.339       .  S
Cd32         O33   2.500       .  S
Cd32         O36   2.494       .  S
Cd32         O34   2.376       .  S
C35          O39   1.269       .  A
C35        C1355   1.488       .  S
O40          C43   1.270       .  A
O40         Cd45   2.416       .  S
C41          O50   1.264       .  A
C41          O46   1.271   1_655  A
C41        C1296   1.466   1_655  S
O42          C48   1.273       .  A
O42         Cd45   2.497       .  S
C43          O51   1.268       .  A
C43        C1310   1.478       .  S
C44          O49   1.275       .  A
C44          O47   1.262       .  A
C44        C1324   1.486       .  S
Cd45         O52   2.425       .  S
Cd45         O51   2.450       .  S
Cd45         O50   2.372       .  S
Cd45         O46   2.482   1_655  S
Cd45         O49   2.478       .  S
Cd45         O47   2.418       .  S
C48          O52   1.267       .  A
C48        C1352   1.488   1_556  S
O53          C56   1.269       .  A
O53         Cd58   2.421       .  S
C54          O63   1.265       .  A
C54          O59   1.270       .  A
C54        C1240   1.465       .  S
O55          C61   1.277       .  A
O55         Cd58   2.529       .  S
C56          O64   1.270       .  A
C56        C1254   1.474       .  S
C57          O62   1.274       .  A
C57          O60   1.265       .  A
C57        C1268   1.480       .  S
Cd58         O65   2.362       .  S
Cd58         O64   2.416       .  S
Cd58         O63   2.395       .  S
Cd58         O59   2.446       .  S
Cd58         O62   2.482       .  S
Cd58         O60   2.417       .  S
C61          O65   1.262       .  A
C61        C1282   1.487       .  S
O66          C69   1.273   1_655  A
O66         Cd71   2.419   1_656  S
C67          O76   1.266   1_655  A
C67          O72   1.273       .  A
C67        C1215   1.474       .  S
O68          C74   1.277   1_455  A
O68         Cd71   2.487       .  S
C69          O77   1.269   1_556  A
C69        C1313   1.477   1_455  S
C70          O75   1.275       .  A
C70          O73   1.267       .  A
C70        C1271   1.483       .  S
Cd71         O78   2.370   1_455  S
Cd71         O77   2.406       .  S
Cd71         O76   2.363       .  S
Cd71         O72   2.482   1_455  S
Cd71         O75   2.486   1_554  S
Cd71         O73   2.417   1_554  S
C74          O78   1.265       .  A
C74        C1226   1.484       .  S
O79          C82   1.272       .  A
O79         Cd84   2.452       .  S
C80          O89   1.267       .  A
C80          O85   1.274       .  A
C80        C1170   1.474       .  S
O81          C87   1.275       .  A
O81         Cd84   2.488       .  S
C82          O90   1.270       .  A
C82        C1257   1.477       .  S
C83          O88   1.278       .  A
C83          O86   1.265       .  A
C83        C1198   1.484   1_556  S
Cd84         O91   2.405       .  S
Cd84         O90   2.396       .  S
Cd84         O89   2.403       .  S
Cd84         O85   2.436       .  S
Cd84         O88   2.494       .  S
Cd84         O86   2.370       .  S
C87          O91   1.267       .  A
C87        C1184   1.480       .  S
O92          C95   1.271       .  A
O92         Cd97   2.422       .  S
C93         O102   1.264       .  A
C93          O98   1.272       .  A
C93        C1128   1.481       .  S
O94         C100   1.273       .  A
O94         Cd97   2.510       .  S
C95         O103   1.269       .  A
C95        C1156   1.481       .  S
C96         O101   1.276       .  A
C96          O99   1.264       .  A
C96        C1142   1.486       .  S
Cd97        O104   2.403       .  S
Cd97        O103   2.431       .  S
Cd97        O102   2.379       .  S
Cd97         O98   2.483       .  S
Cd97        O101   2.501       .  S
Cd97         O99   2.382       .  S
C100        O104   1.265       .  A
C100       C1187   1.484       .  S
O105        C108   1.275       .  A
O105       Cd110   2.496       .  S
C106        O115   1.269       .  A
C106        O111   1.275       .  A
C106       C1159   1.482       .  S
O107        C113   1.274       .  A
O107       Cd110   2.482       .  S
C108        O116   1.266       .  A
C108       C1089   1.477       .  S
C109        O114   1.279       .  A
C109        O112   1.266       .  A
C109       C1100   1.483       .  S
Cd110       O117   2.463       .  S
Cd110       O116   2.365       .  S
Cd110       O115   2.413       .  S
Cd110       O111   2.427       .  S
Cd110       O114   2.485       .  S
Cd110       O112   2.369       .  S
C113        O117   1.270       .  A
C113       C1114   1.491       .  S
O118        C121   1.271       .  A
O118       Cd123   2.442       .  S
C119        O128   1.265       .  A
C119        O124   1.272       .  A
C119       C1044   1.481       .  S
O120        C126   1.277       .  A
O120       Cd123   2.508       .  S
C121        O129   1.271       .  A
C121       C1058   1.482       .  S
C122        O127   1.273       .  A
C122        O125   1.266       .  A
C122       C1117   1.484       .  S
Cd123       O130   2.375       .  S
Cd123       O129   2.428       .  S
Cd123       O128   2.393       .  S
Cd123       O124   2.468       .  S
Cd123       O127   2.492       .  S
Cd123       O125   2.443       .  S
C126        O130   1.264       .  A
C126       C1075   1.487       .  S
O131        C134   1.273       .  A
O131       Cd136   2.415       .  S
C132        O141   1.266       .  A
C132        O137   1.273       .  A
C132       C1002   1.478       .  S
O133        C139   1.274       .  A
O133       Cd136   2.494       .  S
C134        O142   1.269       .  A
C134       C1467   1.474       .  S
C135        O140   1.278       .  A
C135        O138   1.264       .  A
C135       C1019   1.480       .  S
Cd136       O143   2.412       .  S
Cd136       O142   2.396       .  S
Cd136       O141   2.363       .  S
Cd136       O137   2.479       .  S
Cd136       O140   2.484       .  S
Cd136       O138   2.357       .  S
C139        O143   1.268       .  A
C139       C1030   1.483       .  S
O144        C147   1.268       .  A
O144       Cd149   2.437       .  S
C145        O154   1.264       .  A
C145        O150   1.270       .  A
C145        C974   1.462       .  S
O146        C152   1.272       .  A
O146       Cd149   2.524       .  S
C147        O155   1.270       .  A
C147       C1061   1.480       .  S
C148        O153   1.277       .  A
C148        O151   1.263       .  A
C148        C988   1.484       .  S
Cd149       O156   2.399       .  S
Cd149       O155   2.425       .  S
Cd149       O154   2.380       .  S
Cd149       O150   2.466       .  S
Cd149       O153   2.521       .  S
Cd149       O151   2.362       .  S
C152        O156   1.264       .  A
C152       C1033   1.484       .  S
O157        C160   1.271       .  A
O157       Cd162   2.429       .  S
C158        O167   1.267       .  A
C158        O163   1.273       .  A
C158        C932   1.471       .  S
O159        C165   1.276       .  A
O159       Cd162   2.491       .  S
C160        O168   1.270       .  A
C160        C946   1.483       .  S
C161        O166   1.279       .  A
C161        O164   1.264       .  A
C161       C1369   1.487       .  S
Cd162       O169   2.406       .  S
Cd162       O168   2.426       .  S
Cd162       O167   2.403       .  S
Cd162       O163   2.429       .  S
Cd162       O166   2.509       .  S
Cd162       O164   2.365       .  S
C165        O169   1.267       .  A
C165        C960   1.487       .  S
O170        C173   1.273       .  A
O170       Cd175   2.410       .  S
C171        O180   1.266       .  A
C171        O176   1.274       .  A
C171       C1299   1.477       .  S
O172        C178   1.273       .  A
O172       Cd175   2.488       .  S
C173        O181   1.269       .  A
C173        C918   1.476       .  S
C174        O179   1.278       .  A
C174        O177   1.265       .  A
C174        C904   1.483   1_556  S
Cd175       O182   2.427       .  S
Cd175       O181   2.409       .  S
Cd175       O180   2.347       .  S
Cd175       O176   2.480       .  S
Cd175       O179   2.475       .  S
Cd175       O177   2.377       .  S
C178        O182   1.267       .  A
C178        C963   1.479       .  S
O183        C186   1.271       .  A
O183       Cd188   2.398       .  S
C184        O193   1.266       .  A
C184        O189   1.272       .  A
C184        C879   1.469       .  S
O185        C191   1.279       .  A
O185       Cd188   2.514       .  S
C186        O194   1.271       .  A
C186        C949   1.481       .  S
C187        O192   1.276       .  A
C187        O190   1.267       .  A
C187        C893   1.488       .  S
Cd188       O195   2.354       .  S
Cd188       O194   2.442       .  S
Cd188       O193   2.367       .  S
Cd188       O189   2.466       .  S
Cd188       O192   2.499       .  S
Cd188       O190   2.426       .  S
C191        O195   1.264       .  A
C191       C1411   1.486       .  S
O196        C199   1.270       .  A
O196       Cd201   2.497   1_565  S
C197        O206   1.269       .  A
C197        O202   1.269   1_545  A
C197        C848   1.484       .  S
O198        C204   1.272       .  A
O198       Cd201   2.528       .  S
C199        O207   1.263       .  A
C199       C1425   1.473       .  S
C200        O205   1.276       .  A
C200        O203   1.264   1_545  A
C200        C862   1.482   1_545  S
Cd201       O208   2.420       .  S
Cd201       O207   2.394   1_545  S
Cd201       O206   2.470       .  S
Cd201       O202   2.423   1_545  S
Cd201       O205   2.499       .  S
Cd201       O203   2.367   1_545  S
C204        O208   1.265       .  A
C204        C890   1.489       .  S
O209        C212   1.272       .  A
O209       Cd214   2.416       .  S
C210        O219   1.265       .  A
C210        O215   1.271       .  A
C210        C809   1.476       .  S
O211        C217   1.274       .  A
O211       Cd214   2.508       .  S
C212        O220   1.270       .  A
C212        C820   1.480       .  S
C213        O218   1.277       .  A
C213        O216   1.263       .  A
C213       C1201   1.486       .  S
Cd214       O221   2.436       .  S
Cd214       O220   2.443       .  S
Cd214       O219   2.384       .  S
Cd214       O215   2.496       .  S
Cd214       O218   2.512       .  S
Cd214       O216   2.364       .  S
C217        O221   1.267       .  A
C217        C837   1.487       .  S
O222        C225   1.270       .  A
O222       Cd227   2.471   1_545  S
C223        O232   1.270       .  A
C223        O228   1.270   1_565  A
C223        C851   1.483       .  S
O224        C230   1.276       .  A
O224       Cd227   2.488       .  S
C225        O233   1.263   1_545  A
C225       C1131   1.454       .  S
C226        O231   1.273       .  A
C226        O229   1.266       .  A
C226        C834   1.490       .  S
Cd227       O234   2.396   1_565  S
Cd227       O233   2.357       .  S
Cd227       O232   2.444       .  S
Cd227       O228   2.430   1_565  S
Cd227       O231   2.530       .  S
Cd227       O229   2.425       .  S
C230        O234   1.264   1_565  A
C230        C792   1.481       .  S
O235        C238   1.271       .  A
O235       Cd240   2.417       .  S
C236        O245   1.265       .  A
C236        O241   1.272       .  A
C236       C1212   1.472       .  S
O237        C243   1.276       .  A
O237       Cd240   2.496   1_556  S
C238        O246   1.269       .  A
C238        C778   1.479       .  S
C239        O244   1.274       .  A
C239        O242   1.266       .  A
C239        C764   1.482       .  S
Cd240       O247   2.381       .  S
Cd240       O246   2.433       .  S
Cd240       O245   2.383       .  S
Cd240       O241   2.468       .  S
Cd240       O244   2.490       .  S
Cd240       O242   2.406       .  S
C243        O247   1.263   1_556  A
C243        C753   1.483       .  S
O248        C251   1.274       .  A
O248       Cd253   2.445       .  S
C249        O258   1.270       .  A
C249        O254   1.272       .  A
C249        C823   1.479       .  S
O250        C256   1.274       .  A
O250       Cd253   2.494       .  S
C251        O259   1.266       .  A
C251        C736   1.476       .  S
C252        O257   1.279       .  A
C252        O255   1.265       .  A
C252       C1285   1.482       .  S
Cd253       O260   2.406       .  S
Cd253       O259   2.397       .  S
Cd253       O258   2.421       .  S
Cd253       O254   2.428       .  S
Cd253       O257   2.473       .  S
Cd253       O255   2.365       .  S
C256        O260   1.268       .  A
C256        C767   1.483       .  S
O261        C264   1.271   1_556  A
O261       Cd266   2.426   1_556  S
C262        O271   1.267       .  A
C262        O267   1.271       .  A
C262        C694   1.460       .  S
O263        C269   1.278       .  A
O263       Cd266   2.517       .  S
C264        O272   1.270       .  A
C264        C711   1.470   1_554  S
C265        O270   1.275   1_556  A
C265        O268   1.268       .  A
C265        C725   1.485       .  S
Cd266       O273   2.367       .  S
Cd266       O272   2.394       .  S
Cd266       O271   2.399       .  S
Cd266       O267   2.416       .  S
Cd266       O270   2.479       .  S
Cd266       O268   2.434   1_554  S
C269        O273   1.263       .  A
C269       C1072   1.487       .  S
O274        C277   1.271       .  A
O274       Cd279   2.421       .  S
C275        O284   1.265       .  A
C275        O280   1.272       .  A
C275       C1086   1.475       .  S
O276        C282   1.277       .  A
O276       Cd279   2.503       .  S
C277        O285   1.269       .  A
C277        C921   1.479       .  S
C278        O283   1.273       .  A
C278        O281   1.267       .  A
C278        C722   1.487       .  S
Cd279       O286   2.376       .  S
Cd279       O285   2.430       .  S
Cd279       O284   2.397       .  S
Cd279       O280   2.464       .  S
Cd279       O283   2.480       .  S
Cd279       O281   2.448       .  S
C282        O286   1.263       .  A
C282        C683   1.486       .  S
O287        C290   1.270       .  A
O287       Cd292   2.460       .  S
C288        O297   1.268       .  A
C288        O293   1.270       .  A
C288        C781   1.478       .  S
O289        C295   1.275       .  A
O289       Cd292   2.508       .  S
C290        O298   1.265       .  A
C290       C1005   1.466       .  S
C291        O296   1.274       .  A
C291        O294   1.266       .  A
C291        C666   1.482       .  S
Cd292       O299   2.368       .  S
Cd292       O298   2.399       .  S
Cd292       O297   2.423       .  S
Cd292       O293   2.417       .  S
Cd292       O296   2.479       .  S
Cd292       O294   2.399       .  S
C295        O299   1.262       .  A
C295        C655   1.483       .  S
O300        C303   1.270       .  A
O300       Cd305   2.423       .  S
C301        O310   1.264       .  A
C301        O306   1.272       .  A
C301        C638   1.475       .  S
O302        C308   1.273       .  A
O302       Cd305   2.490       .  S
C303        O311   1.271       .  A
C303        C708   1.474       .  S
C304        O309   1.277       .  A
C304        O307   1.263       .  A
C304        C991   1.485       .  S
Cd305       O312   2.427   1_556  S
Cd305       O311   2.419       .  S
Cd305       O310   2.376       .  S
Cd305       O306   2.450       .  S
Cd305       O309   2.502       .  S
Cd305       O307   2.376       .  S
C308        O312   1.267   1_556  A
C308        C669   1.482   1_556  S
O313        C316   1.272       .  A
O313       Cd318   2.445       .  S
C314        O323   1.264       .  A
C314        O319   1.272       .  A
C314        C641   1.463       .  S
O315        C321   1.272       .  A
O315       Cd318   2.495       .  S
C316        O324   1.269       .  A
C316        C610   1.486       .  S
C317        O322   1.276       .  A
C317        O320   1.262       .  A
C317       C1016   1.479   1_556  S
Cd318       O325   2.427       .  S
Cd318       O324   2.428       .  S
Cd318       O323   2.374       .  S
Cd318       O319   2.480       .  S
Cd318       O322   2.494       .  S
Cd318       O320   2.343       .  S
C321        O325   1.269       .  A
C321        C624   1.488       .  S
O326        C329   1.269       .  A
O326       Cd331   2.402       .  S
C327        O336   1.263       .  A
C327        O332   1.271       .  A
C327        C977   1.464       .  S
O328        C334   1.272       .  A
O328       Cd331   2.494       .  S
C329        O337   1.270       .  A
C329        C596   1.482       .  S
C330        O335   1.277       .  A
C330        O333   1.263       .  A
C330        C652   1.480       .  S
Cd331       O338   2.421       .  S
Cd331       O337   2.446       .  S
Cd331       O336   2.371       .  S
Cd331       O332   2.480       .  S
Cd331       O335   2.497       .  S
Cd331       O333   2.352       .  S
C334        O338   1.265       .  A
C334        C627   1.482       .  S
O339        C342   1.275       .  A
O339       Cd344   2.463       .  S
C340        O349   1.269       .  A
C340        O345   1.272       .  A
C340        C613   1.487       .  S
O341        C347   1.273       .  A
O341       Cd344   2.487       .  S
C342        O350   1.264       .  A
C342        C876   1.472       .  S
C343        O348   1.276       .  A
C343        O346   1.264       .  A
C343       C1436   1.484       .  S
Cd344       O351   2.434       .  S
Cd344       O350   2.375       .  S
Cd344       O349   2.448       .  S
Cd344       O345   2.444       .  S
Cd344       O348   2.461       .  S
Cd344       O346   2.416       .  S
C347        O351   1.269       .  A
C347        C582   1.488       .  S
O352        C355   1.271       .  A
O352       Cd357   2.433   1_556  S
C353        O362   1.263       .  A
C353        O358   1.272   1_564  A
C353       C1380   1.464   1_565  S
O354        C360   1.277       .  A
O354       Cd357   2.488       .  S
C355        O363   1.268   1_556  A
C355        C568   1.483       .  S
C356        O361   1.270   1_556  A
C356        O359   1.268       .  A
C356        C585   1.489       .  S
Cd357       O364   2.361       .  S
Cd357       O363   2.451       .  S
Cd357       O362   2.358       .  S
Cd357       O358   2.499   1_564  S
Cd357       O361   2.493       .  S
Cd357       O359   2.450   1_554  S
C360        O364   1.263       .  A
C360        C865   1.479       .  S
O365        C368   1.269       .  A
O365       Cd370   2.450       .  S
C366        O375   1.261       .  A
C366        O371   1.271       .  A
C366        C739   1.458   1_655  S
O367        C373   1.277       .  A
O367       Cd370   2.509       .  S
C368        O376   1.271       .  A
C368        C540   1.485       .  S
C369        O374   1.271       .  A
C369        O372   1.266       .  A
C369        C557   1.486       .  S
Cd370       O377   2.349       .  S
Cd370       O376   2.433       .  S
Cd370       O375   2.392       .  S
Cd370       O371   2.464       .  S
Cd370       O374   2.506       .  S
Cd370       O372   2.452       .  S
C373        O377   1.263       .  A
C373       C1229   1.483       .  S
O378        C381   1.271       .  A
O378       Cd383   2.424       .  S
C379        O388   1.265       .  A
C379        O384   1.272       .  A
C379       C1243   1.475       .  S
O380        C386   1.277       .  A
O380       Cd383   2.503       .  S
C381        O389   1.270       .  A
C381        C599   1.483       .  S
C382        O387   1.274       .  A
C382        O385   1.267       .  A
C382        C554   1.494       .  S
Cd383       O390   2.373       .  S
Cd383       O389   2.438       .  S
Cd383       O388   2.361       .  S
Cd383       O384   2.486       .  S
Cd383       O387   2.513       .  S
Cd383       O385   2.430       .  S
C386        O390   1.264       .  A
C386        C750   1.485       .  S
O391        C394   1.270   1_655  A
O391       Cd396   2.446   1_655  S
C392        O401   1.265   1_655  A
C392        O397   1.273       .  A
C392        C935   1.469       .  S
O393        C399   1.273       .  A
O393       Cd396   2.486       .  S
C394        O402   1.270       .  A
C394        C543   1.483   1_455  S
C395        O400   1.277       .  A
C395        O398   1.262   1_455  A
C395       C1327   1.488       .  S
Cd396       O403   2.467       .  S
Cd396       O402   2.435       .  S
Cd396       O401   2.373       .  S
Cd396       O397   2.460   1_455  S
Cd396       O400   2.501       .  S
Cd396       O398   2.400   1_455  S
C399        O403   1.268       .  A
C399        C526   1.490       .  S
O404        C407   1.271       .  A
O404       Cd409   2.424       .  S
C405        O414   1.264       .  A
C405        O410   1.272       .  A
C405       C1338   1.467       .  S
O406        C412   1.273       .  A
O406       Cd409   2.492       .  S
C407        O415   1.269       .  A
C407        C515   1.481       .  S
C408        O413   1.277       .  A
C408        O411   1.263       .  A
C408        C907   1.487       .  S
Cd409       O416   2.444       .  S
Cd409       O415   2.439       .  S
Cd409       O414   2.373       .  S
Cd409       O410   2.471       .  S
Cd409       O413   2.483       .  S
Cd409       O411   2.416       .  S
C412        O416   1.268       .  A
C412        C529   1.488       .  S
O417        C420   1.271       .  A
O417       Cd422   2.446       .  S
C418        O427   1.265       .  A
C418        O423   1.272   1_545  A
C418       C1173   1.472   1_545  S
O419        C425   1.273   1_556  A
O419       Cd422   2.478       .  S
C420        O428   1.268       .  A
C420        C571   1.482       .  S
C421        O426   1.276       .  A
C421        O424   1.262       .  A
C421        C795   1.478       .  S
Cd422       O429   2.461   1_556  S
Cd422       O428   2.426       .  S
Cd422       O427   2.387       .  S
Cd422       O423   2.479   1_545  S
Cd422       O426   2.520       .  S
Cd422       O424   2.371       .  S
C425        O429   1.268       .  A
C425        C498   1.489       .  S
O430        C433   1.270       .  A
O430       Cd435   2.453       .  S
C431        O440   1.264       .  A
C431        O436   1.273       .  A
C431        C806   1.472       .  S
O432        C438   1.273       .  A
O432       Cd435   2.486       .  S
C433        O441   1.270       .  A
C433        C484   1.486       .  S
C434        O439   1.276       .  A
C434        O437   1.263       .  A
C434       C1145   1.487       .  S
Cd435       O442   2.464       .  S
Cd435       O441   2.434       .  S
Cd435       O440   2.380       .  S
Cd435       O436   2.476       .  S
Cd435       O439   2.522       .  S
Cd435       O437   2.385       .  S
C438        O442   1.268       .  A
C438        C501   1.491       .  S
O443        C446   1.270       .  A
O443       Cd448   2.431       .  S
C444        O453   1.265       .  A
C444        O449   1.270       .  A
C444       C1047   1.460       .  S
O445        C451   1.276       .  A
O445       Cd448   2.509       .  S
C446        O454   1.269       .  A
C446        C512   1.482       .  S
C447        O452   1.273       .  A
C447        O450   1.268       .  A
C447        C470   1.489       .  S
Cd448       O455   2.377       .  S
Cd448       O454   2.434       .  S
Cd448       O453   2.387       .  S
Cd448       O449   2.457       .  S
Cd448       O452   2.496       .  S
Cd448       O450   2.432       .  S
C451        O455   1.262       .  A
C451        C680   1.485       .  S
O456        C459   1.269       .  A
O456       Cd461   2.453       .  S
C457        O466   1.263       .  A
C457        O462   1.270       .  A
C457        C697   1.469       .  S
O458        C464   1.275   1_554  A
O458       Cd461   2.519       .  S
C459        O467   1.271       .  A
C459        C487   1.486       .  S
C460        O465   1.271       .  A
C460        O463   1.266       .  A
C460        C473   1.486       .  S
Cd461       O468   2.370       .  S
Cd461       O467   2.426       .  S
Cd461       O466   2.370       .  S
Cd461       O462   2.465       .  S
Cd461       O465   2.509       .  S
Cd461       O463   2.429       .  S
C464        O468   1.262   1_556  A
C464       C1103   1.484       .  S
C469        C470   1.407       .  A
C469        C474   1.404       .  A
C469        H476   1.084       .  S
C470        C471   1.413       .  A
C471        C472   1.403       .  A
C471        N478   1.428       .  S
C472        C473   1.405       .  A
C472        H477   1.084       .  S
C473        C474   1.413       .  A
C474        N475   1.429       .  S
N475        O479   1.262       .  A
N475        O480   1.262       .  A
N478        O482   1.262       .  A
N478        O481   1.262       .  A
C483        C484   1.406       .  A
C483        C488   1.401       .  A
C483        H490   1.082       .  S
C484        C485   1.413       .  A
C485        C486   1.399       .  A
C485        N492   1.428       .  S
C486        C487   1.404       .  A
C486        H491   1.082       .  S
C487        C488   1.415       .  A
C488        N489   1.429       .  S
N489        O493   1.262       .  A
N489        O494   1.262       .  A
N492        O496   1.262       .  A
N492        O495   1.262       .  A
C497        C498   1.405       .  A
C497        C502   1.404       .  A
C497        H504   1.081   1_554  S
C498        C499   1.414       .  A
C499        C500   1.406       .  A
C499        N506   1.429       .  S
C500        C501   1.406       .  A
C500        H505   1.081       .  S
C501        C502   1.413       .  A
C502        N503   1.429       .  S
N503        O507   1.262       .  A
N503        O508   1.262   1_554  A
N506        O510   1.262       .  A
N506        O509   1.262       .  A
C511        C512   1.406       .  A
C511        C516   1.400       .  A
C511        H518   1.082       .  S
C512        C513   1.412       .  A
C513        C514   1.398       .  A
C513        N520   1.428       .  S
C514        C515   1.404       .  A
C514        H519   1.082       .  S
C515        C516   1.413       .  A
C516        N517   1.430       .  S
N517        O521   1.262       .  A
N517        O522   1.262       .  A
N520        O524   1.262       .  A
N520        O523   1.262       .  A
C525        C526   1.405       .  A
C525        C530   1.404       .  A
C525        H532   1.082       .  S
C526        C527   1.414       .  A
C527        C528   1.406       .  A
C527        N534   1.428       .  S
C528        C529   1.405       .  A
C528        H533   1.082       .  S
C529        C530   1.413       .  A
C530        N531   1.429       .  S
N531        O535   1.262       .  A
N531        O536   1.262       .  A
N534        O538   1.262       .  A
N534        O537   1.262       .  A
C539        C540   1.404       .  A
C539        C544   1.399       .  A
C539        H546   1.082       .  S
C540        C541   1.415   1_655  A
C541        C542   1.401       .  A
C541        N548   1.429       .  S
C542        C543   1.404   1_455  A
C542        H547   1.082       .  S
C543        C544   1.413       .  A
C544        N545   1.429       .  S
N545        O549   1.262       .  A
N545        O550   1.262       .  A
N548        O552   1.262       .  A
N548        O551   1.262       .  A
C553        C554   1.407       .  A
C553        C558   1.403       .  A
C553        H560   1.083       .  S
C554        C555   1.414       .  A
C555        C556   1.407       .  A
C555        N562   1.428       .  S
C556        C557   1.405       .  A
C556        H561   1.083       .  S
C557        C558   1.411       .  A
C558        N559   1.429       .  S
N559        O563   1.262       .  A
N559        O564   1.262       .  A
N562        O566   1.262       .  A
N562        O565   1.262       .  A
C567        C568   1.402   1_545  A
C567        C572   1.398       .  A
C567        H574   1.083       .  S
C568        C569   1.416   1_556  A
C569        C570   1.402       .  A
C569        N576   1.429       .  S
C570        C571   1.403   1_564  A
C570        H575   1.083       .  S
C571        C572   1.414       .  A
C572        N573   1.429       .  S
N573        O577   1.262       .  A
N573        O578   1.262       .  A
N576        O580   1.262       .  A
N576        O579   1.262       .  A
C581        C582   1.405       .  A
C581        C586   1.404       .  A
C581        H588   1.085       .  S
C582        C583   1.413       .  A
C583        C584   1.404       .  A
C583        N590   1.428       .  S
C584        C585   1.405       .  A
C584        H589   1.085       .  S
C585        C586   1.414       .  A
C586        N587   1.429   1_556  S
N587        O591   1.262       .  A
N587        O592   1.262       .  A
N590        O594   1.261       .  A
N590        O593   1.261       .  A
C595        C596   1.405       .  A
C595        C600   1.397       .  A
C595        H602   1.079       .  S
C596        C597   1.413       .  A
C597        C598   1.400       .  A
C597        N604   1.429       .  S
C598        C599   1.406       .  A
C598        H603   1.079       .  S
C599        C600   1.413       .  A
C600        N601   1.429       .  S
N601        O605   1.262       .  A
N601        O606   1.262       .  A
N604        O608   1.262       .  A
N604        O607   1.262       .  A
C609        C610   1.406       .  A
C609        C614   1.402       .  A
C609        H616   1.079       .  S
C610        C611   1.413       .  A
C611        C612   1.400       .  A
C611        N618   1.429       .  S
C612        C613   1.405       .  A
C612        H617   1.079       .  S
C613        C614   1.414       .  A
C614        N615   1.429       .  S
N615        O619   1.262       .  A
N615        O620   1.262       .  A
N618        O622   1.262       .  A
N618        O621   1.262       .  A
C623        C624   1.406       .  A
C623        C628   1.402       .  A
C623        H630   1.083       .  S
C624        C625   1.415       .  A
C625        C626   1.404       .  A
C625        N632   1.429       .  S
C626        C627   1.405       .  A
C626        H631   1.083       .  S
C627        C628   1.411       .  A
C628        N629   1.429       .  S
N629        O633   1.262       .  A
N629        O634   1.261       .  A
N632        O636   1.262       .  A
N632        O635   1.262       .  A
C637        C638   1.405       .  A
C637        C642   1.400       .  A
C637        H644   1.086       .  S
C638        C639   1.415       .  A
C639        C640   1.392       .  A
C639        N646   1.429       .  S
C640        C641   1.397       .  A
C640        H645   1.086       .  S
C641        C642   1.408       .  A
C642        N643   1.429       .  S
N643        O647   1.262       .  A
N643        O648   1.262       .  A
N646        O650   1.262       .  A
N646        O649   1.262       .  A
C651        C652   1.410       .  A
C651        C656   1.397       .  A
C651        H658   1.083       .  S
C652        C653   1.406       .  A
C653        C654   1.398       .  A
C653        N660   1.429       .  S
C654        C655   1.411       .  A
C654        H659   1.082       .  S
C655        C656   1.408       .  A
C656        N657   1.429       .  S
N657        O661   1.262       .  A
N657        O662   1.262       .  A
N660        O664   1.262       .  A
N660        O663   1.262       .  A
C665        C666   1.406       .  A
C665        C670   1.401       .  A
C665        H672   1.082       .  S
C666        C667   1.410       .  A
C667        C668   1.403       .  A
C667        N674   1.429       .  S
C668        C669   1.407       .  A
C668        H673   1.082       .  S
C669        C670   1.411       .  A
C670        N671   1.429   1_554  S
N671        O675   1.262       .  A
N671        O676   1.262       .  A
N674        O678   1.262       .  A
N674        O677   1.261       .  A
C679        C680   1.411       .  A
C679        C684   1.400       .  A
C679        H686   1.082       .  S
C680        C681   1.407       .  A
C681        C682   1.400       .  A
C681        N688   1.429       .  S
C682        C683   1.411       .  A
C682        H687   1.082       .  S
C683        C684   1.408       .  A
C684        N685   1.429       .  S
N685        O689   1.262       .  A
N685        O690   1.262       .  A
N688        O692   1.262       .  A
N688        O691   1.262       .  A
C693        C694   1.401       .  A
C693        C698   1.396       .  A
C693        H700   1.082       .  S
C694        C695   1.406       .  A
C695        C696   1.393       .  A
C695        N702   1.430       .  S
C696        C697   1.406       .  A
C696        H701   1.082       .  S
C697        C698   1.410       .  A
C698        N699   1.428       .  S
N699        O703   1.262       .  A
N699        O704   1.262       .  A
N702        O706   1.262       .  A
N702        O705   1.262   1_554  A
C707        C708   1.403       .  A
C707        C712   1.398       .  A
C707        H714   1.082       .  S
C708        C709   1.412       .  A
C709        C710   1.395       .  A
C709        N716   1.429       .  S
C710        C711   1.400       .  A
C710        H715   1.082       .  S
C711        C712   1.411       .  A
C712        N713   1.429   1_556  S
N713        O717   1.262   1_554  A
N713        O718   1.262       .  A
N716        O720   1.262   1_556  A
N716        O719   1.262       .  A
C721        C722   1.404       .  A
C721        C726   1.403       .  A
C721        H728   1.082       .  S
C722        C723   1.415       .  A
C723        C724   1.403       .  A
C723        N730   1.429       .  S
C724        C725   1.403       .  A
C724        H729   1.082       .  S
C725        C726   1.414       .  A
C726        N727   1.429       .  S
N727        O731   1.262       .  A
N727        O732   1.262       .  A
N730        O734   1.262       .  A
N730        O733   1.262       .  A
C735        C736   1.403       .  A
C735        C740   1.397       .  A
C735        H742   1.084       .  S
C736        C737   1.418       .  A
C737        C738   1.396   1_455  A
C737        N744   1.429       .  S
C738        C739   1.394   1_655  A
C738        H743   1.085       .  S
C739        C740   1.407       .  A
C740        N741   1.429       .  S
N741        O745   1.262       .  A
N741        O746   1.262       .  A
N744        O748   1.262       .  A
N744        O747   1.262   1_455  A
C749        C750   1.410       .  A
C749        C754   1.399       .  A
C749        H756   1.082       .  S
C750        C751   1.409       .  A
C751        C752   1.400       .  A
C751        N758   1.429       .  S
C752        C753   1.409       .  A
C752        H757   1.083       .  S
C753        C754   1.407       .  A
C754        N755   1.429       .  S
N755        O759   1.262       .  A
N755        O760   1.262       .  A
N758        O762   1.262       .  A
N758        O761   1.262       .  A
C763        C764   1.406       .  A
C763        C768   1.402       .  A
C763        H770   1.085       .  S
C764        C765   1.411       .  A
C765        C766   1.401   1_655  A
C765        N772   1.428   1_655  S
C766        C767   1.406       .  A
C766        H771   1.085       .  S
C767        C768   1.411   1_455  A
C768        N769   1.428       .  S
N769        O773   1.262       .  A
N769        O774   1.262       .  A
N772        O776   1.261       .  A
N772        O775   1.261       .  A
C777        C778   1.404       .  A
C777        C782   1.396       .  A
C777        H784   1.082       .  S
C778        C779   1.413       .  A
C779        C780   1.397       .  A
C779        N786   1.429       .  S
C780        C781   1.404       .  A
C780        H785   1.083       .  S
C781        C782   1.412       .  A
C782        N783   1.429       .  S
N783        O787   1.262       .  A
N783        O788   1.262       .  A
N786        O790   1.262       .  A
N786        O789   1.262       .  A
C791        C792   1.410   1_545  A
C791        C796   1.403       .  A
C791        H798   1.083       .  S
C792        C793   1.408       .  A
C793        C794   1.397       .  A
C793        N800   1.429       .  S
C794        C795   1.406   1_565  A
C794        H799   1.083       .  S
C795        C796   1.407       .  A
C796        N797   1.428       .  S
N797        O801   1.262       .  A
N797        O802   1.262       .  A
N800        O804   1.262       .  A
N800        O803   1.262       .  A
C805        C806   1.404       .  A
C805        C810   1.404   1_545  A
C805        H812   1.083       .  S
C806        C807   1.410       .  A
C807        C808   1.392   1_545  A
C807        N814   1.430       .  S
C808        C809   1.402       .  A
C808        H813   1.084       .  S
C809        C810   1.413       .  A
C810        N811   1.429       .  S
N811        O815   1.262       .  A
N811        O816   1.262       .  A
N814        O818   1.262       .  A
N814        O817   1.262       .  A
C819        C820   1.404       .  A
C819        C824   1.397       .  A
C819        H826   1.082       .  S
C820        C821   1.412       .  A
C821        C822   1.400       .  A
C821        N828   1.429       .  S
C822        C823   1.405       .  A
C822        H827   1.082       .  S
C823        C824   1.411       .  A
C824        N825   1.429       .  S
N825        O829   1.262       .  A
N825        O830   1.262       .  A
N828        O832   1.262       .  A
N828        O831   1.262       .  A
C833        C834   1.407       .  A
C833        C838   1.403       .  A
C833        H840   1.083       .  S
C834        C835   1.413       .  A
C835        C836   1.406       .  A
C835        N842   1.428       .  S
C836        C837   1.407       .  A
C836        H841   1.083       .  S
C837        C838   1.410       .  A
C838        N839   1.429       .  S
N839        O843   1.262       .  A
N839        O844   1.262       .  A
N842        O846   1.262       .  A
N842        O845   1.262       .  A
C847        C848   1.405   1_565  A
C847        C852   1.398       .  A
C847        H854   1.081       .  S
C848        C849   1.414       .  A
C849        C850   1.401       .  A
C849        N856   1.429       .  S
C850        C851   1.406   1_545  A
C850        H855   1.081       .  S
C851        C852   1.412       .  A
C852        N853   1.429       .  S
N853        O857   1.262       .  A
N853        O858   1.262       .  A
N856        O860   1.262       .  A
N856        O859   1.262       .  A
C861        C862   1.411       .  A
C861        C866   1.398       .  A
C861        H868   1.082       .  S
C862        C863   1.408   1_565  A
C863        C864   1.398       .  A
C863        N870   1.429       .  S
C864        C865   1.409   1_545  A
C864        H869   1.082       .  S
C865        C866   1.406       .  A
C866        N867   1.429       .  S
N867        O871   1.262       .  A
N867        O872   1.262       .  A
N870        O874   1.262       .  A
N870        O873   1.262       .  A
C875        C876   1.403       .  A
C875        C880   1.401   1_565  A
C875        H882   1.083       .  S
C876        C877   1.412       .  A
C877        C878   1.391   1_565  A
C877        N884   1.429       .  S
C878        C879   1.399       .  A
C878        H883   1.084       .  S
C879        C880   1.410       .  A
C880        N881   1.428       .  S
N881        O885   1.262       .  A
N881        O886   1.262       .  A
N884        O888   1.262       .  A
N884        O887   1.262       .  A
C889        C890   1.406       .  A
C889        C894   1.401       .  A
C889        H896   1.085       .  S
C890        C891   1.412       .  A
C891        C892   1.406       .  A
C891        N898   1.429       .  S
C892        C893   1.408       .  A
C892        H897   1.085       .  S
C893        C894   1.411       .  A
C894        N895   1.428       .  S
N895        O899   1.262       .  A
N895        O900   1.262       .  A
N898        O902   1.262       .  A
N898        O901   1.262       .  A
C903        C904   1.400       .  A
C903        C908   1.401       .  A
C903        H910   1.083       .  S
C904        C905   1.418       .  A
C905        C906   1.398       .  A
C905        N912   1.428   1_554  S
C906        C907   1.400       .  A
C906        H911   1.083       .  S
C907        C908   1.420       .  A
C908        N909   1.429       .  S
N909        O913   1.262       .  A
N909        O914   1.262       .  A
N912        O916   1.262       .  A
N912        O915   1.261       .  A
C917        C918   1.402       .  A
C917        C922   1.397       .  A
C917        H924   1.082       .  S
C918        C919   1.413       .  A
C919        C920   1.397       .  A
C919        N926   1.429       .  S
C920        C921   1.403       .  A
C920        H925   1.081       .  S
C921        C922   1.414       .  A
C922        N923   1.429       .  S
N923        O927   1.262       .  A
N923        O928   1.262       .  A
N926        O930   1.262       .  A
N926        O929   1.262       .  A
C931        C932   1.403       .  A
C931        C936   1.397       .  A
C931        H938   1.084       .  S
C932        C933   1.412       .  A
C933        C934   1.395       .  A
C933        N940   1.430       .  S
C934        C935   1.403       .  A
C934        H939   1.084   1_655  S
C935        C936   1.408       .  A
C936        N937   1.428       .  S
N937        O941   1.262       .  A
N937        O942   1.261       .  A
N940        O944   1.262   1_655  A
N940        O943   1.262   1_655  A
C945        C946   1.406       .  A
C945        C950   1.401       .  A
C945        H952   1.081       .  S
C946        C947   1.412       .  A
C947        C948   1.395       .  A
C947        N954   1.429       .  S
C948        C949   1.404       .  A
C948        H953   1.081       .  S
C949        C950   1.413       .  A
C950        N951   1.429       .  S
N951        O955   1.262       .  A
N951        O956   1.262       .  A
N954        O958   1.262       .  A
N954        O957   1.262       .  A
C959        C960   1.409       .  A
C959        C964   1.403       .  A
C959        H966   1.084       .  S
C960        C961   1.412       .  A
C961        C962   1.404   1_655  A
C961        N968   1.428       .  S
C962        C963   1.404       .  A
C962        H967   1.084       .  S
C963        C964   1.408   1_455  A
C964        N965   1.430       .  S
N965        O969   1.262       .  A
N965        O970   1.262       .  A
N968        O972   1.262   1_655  A
N968        O971   1.262   1_655  A
C973        C974   1.405       .  A
C973        C978   1.396       .  A
C973        H980   1.081       .  S
C974        C975   1.404       .  A
C975        C976   1.396       .  A
C975        N982   1.429       .  S
C976        C977   1.406       .  A
C976        H981   1.081       .  S
C977        C978   1.405       .  A
C978        N979   1.429       .  S
N979        O983   1.262       .  A
N979        O984   1.262       .  A
N982        O986   1.262       .  A
N982        O985   1.262       .  A
C987        C988   1.410       .  A
C987        C992   1.398       .  A
C987        H994   1.083       .  S
C988        C989   1.407       .  A
C989        C990   1.402       .  A
C989        N996   1.428       .  S
C990        C991   1.412       .  A
C990        H995   1.082       .  S
C991        C992   1.408       .  A
C992        N993   1.429       .  S
N993        O997   1.262       .  A
N993        O998   1.262       .  A
N996       O1000   1.262       .  A
N996        O999   1.262       .  A
C1001      C1002   1.404       .  A
C1001      C1006   1.390       .  A
C1001      H1008   1.083       .  S
C1002      C1003   1.413       .  A
C1003      C1004   1.402       .  A
C1003      N1010   1.428       .  S
C1004      C1005   1.403       .  A
C1004      H1009   1.083       .  S
C1005      C1006   1.406       .  A
C1006      N1007   1.429       .  S
N1007      O1011   1.261       .  A
N1007      O1012   1.262       .  A
N1010      O1014   1.262       .  A
N1010      O1013   1.262       .  A
C1015      C1016   1.410       .  A
C1015      C1020   1.396       .  A
C1015      H1022   1.082   1_554  S
C1016      C1017   1.407       .  A
C1017      C1018   1.398       .  A
C1017      N1024   1.429       .  S
C1018      C1019   1.411       .  A
C1018      H1023   1.082       .  S
C1019      C1020   1.406       .  A
C1020      N1021   1.429       .  S
N1021      O1025   1.262       .  A
N1021      O1026   1.262       .  A
N1024      O1028   1.262       .  A
N1024      O1027   1.262       .  A
C1029      C1030   1.407       .  A
C1029      C1034   1.404       .  A
C1029      H1036   1.086       .  S
C1030      C1031   1.410       .  A
C1031      C1032   1.400       .  A
C1031      N1038   1.429       .  S
C1032      C1033   1.406       .  A
C1032      H1037   1.086       .  S
C1033      C1034   1.411       .  A
C1034      N1035   1.429       .  S
N1035      O1039   1.262       .  A
N1035      O1040   1.262       .  A
N1038      O1042   1.262       .  A
N1038      O1041   1.262       .  A
C1043      C1044   1.410       .  A
C1043      C1048   1.396       .  A
C1043      H1050   1.084       .  S
C1044      C1045   1.413       .  A
C1045      C1046   1.399       .  A
C1045      N1052   1.428       .  S
C1046      C1047   1.399       .  A
C1046      H1051   1.085       .  S
C1047      C1048   1.402       .  A
C1048      N1049   1.430       .  S
N1049      O1053   1.262       .  A
N1049      O1054   1.262       .  A
N1052      O1056   1.262       .  A
N1052      O1055   1.262       .  A
C1057      C1058   1.406       .  A
C1057      C1062   1.399       .  A
C1057      H1064   1.082       .  S
C1058      C1059   1.412       .  A
C1059      C1060   1.398       .  A
C1059      N1066   1.428       .  S
C1060      C1061   1.404       .  A
C1060      H1065   1.082       .  S
C1061      C1062   1.413       .  A
C1062      N1063   1.429       .  S
N1063      O1067   1.262       .  A
N1063      O1068   1.262       .  A
N1066      O1070   1.262       .  A
N1066      O1069   1.262       .  A
C1071      C1072   1.411       .  A
C1071      C1076   1.400       .  A
C1071      H1078   1.083       .  S
C1072      C1073   1.407       .  A
C1073      C1074   1.401       .  A
C1073      N1080   1.428       .  S
C1074      C1075   1.411       .  A
C1074      H1079   1.083       .  S
C1075      C1076   1.409       .  A
C1076      N1077   1.429       .  S
N1077      O1081   1.262       .  A
N1077      O1082   1.262       .  A
N1080      O1084   1.262       .  A
N1080      O1083   1.262       .  A
C1085      C1086   1.405       .  A
C1085      C1090   1.404       .  A
C1085      H1092   1.085       .  S
C1086      C1087   1.410       .  A
C1087      C1088   1.393       .  A
C1087      N1094   1.429       .  S
C1088      C1089   1.403       .  A
C1088      H1093   1.085       .  S
C1089      C1090   1.412       .  A
C1090      N1091   1.428       .  S
N1091      O1095   1.262       .  A
N1091      O1096   1.262       .  A
N1094      O1098   1.262       .  A
N1094      O1097   1.262       .  A
C1099      C1100   1.410       .  A
C1099      C1104   1.400       .  A
C1099      H1106   1.083       .  S
C1100      C1101   1.407       .  A
C1101      C1102   1.398       .  A
C1101      N1108   1.428       .  S
C1102      C1103   1.410       .  A
C1102      H1107   1.083       .  S
C1103      C1104   1.408       .  A
C1104      N1105   1.429       .  S
N1105      O1109   1.262       .  A
N1105      O1110   1.262       .  A
N1108      O1112   1.262       .  A
N1108      O1111   1.262       .  A
C1113      C1114   1.405       .  A
C1113      C1118   1.405       .  A
C1113      H1120   1.082       .  S
C1114      C1115   1.415       .  A
C1115      C1116   1.404       .  A
C1115      N1122   1.429       .  S
C1116      C1117   1.403       .  A
C1116      H1121   1.082       .  S
C1117      C1118   1.412       .  A
C1118      N1119   1.429       .  S
N1119      O1123   1.262       .  A
N1119      O1124   1.262       .  A
N1122      O1126   1.262       .  A
N1122      O1125   1.262       .  A
C1127      C1128   1.410       .  A
C1127      C1132   1.404       .  A
C1127      H1134   1.085       .  S
C1128      C1129   1.417       .  A
C1129      C1130   1.389       .  A
C1129      N1136   1.429       .  S
C1130      C1131   1.392       .  A
C1130      H1135   1.087   1_545  S
C1131      C1132   1.405       .  A
C1132      N1133   1.430       .  S
N1133      O1137   1.262       .  A
N1133      O1138   1.262       .  A
N1136      O1140   1.262   1_545  A
N1136      O1139   1.262       .  A
C1141      C1142   1.411       .  A
C1141      C1146   1.401       .  A
C1141      H1148   1.082       .  S
C1142      C1143   1.408       .  A
C1143      C1144   1.400       .  A
C1143      N1150   1.429       .  S
C1144      C1145   1.410       .  A
C1144      H1149   1.082       .  S
C1145      C1146   1.408       .  A
C1146      N1147   1.428       .  S
N1147      O1151   1.262       .  A
N1147      O1152   1.262       .  A
N1150      O1154   1.262       .  A
N1150      O1153   1.262       .  A
C1155      C1156   1.404       .  A
C1155      C1160   1.398       .  A
C1155      H1162   1.082       .  S
C1156      C1157   1.413       .  A
C1157      C1158   1.398       .  A
C1157      N1164   1.429       .  S
C1158      C1159   1.403       .  A
C1158      H1163   1.082       .  S
C1159      C1160   1.415       .  A
C1160      N1161   1.430       .  S
N1161      O1165   1.262       .  A
N1161      O1166   1.262       .  A
N1164      O1168   1.262       .  A
N1164      O1167   1.262       .  A
C1169      C1170   1.403       .  A
C1169      C1174   1.399       .  A
C1169      H1176   1.086       .  S
C1170      C1171   1.412       .  A
C1171      C1172   1.396       .  A
C1171      N1178   1.429   1_565  S
C1172      C1173   1.402       .  A
C1172      H1177   1.086   1_565  S
C1173      C1174   1.410       .  A
C1174      N1175   1.428       .  S
N1175      O1179   1.262       .  A
N1175      O1180   1.262       .  A
N1178      O1182   1.262       .  A
N1178      O1181   1.262       .  A
C1183      C1184   1.406       .  A
C1183      C1188   1.403       .  A
C1183      H1190   1.086       .  S
C1184      C1185   1.409       .  A
C1185      C1186   1.400   1_565  A
C1185      N1192   1.429   1_565  S
C1186      C1187   1.406       .  A
C1186      H1191   1.085       .  S
C1187      C1188   1.411   1_545  A
C1188      N1189   1.429       .  S
N1189      O1193   1.262       .  A
N1189      O1194   1.262       .  A
N1192      O1196   1.261       .  A
N1192      O1195   1.262       .  A
C1197      C1198   1.411       .  A
C1197      C1202   1.400       .  A
C1197      H1204   1.083   1_554  S
C1198      C1199   1.407       .  A
C1199      C1200   1.399       .  A
C1199      N1206   1.428       .  S
C1200      C1201   1.411       .  A
C1200      H1205   1.082       .  S
C1201      C1202   1.409       .  A
C1202      N1203   1.429       .  S
N1203      O1207   1.262       .  A
N1203      O1208   1.262       .  A
N1206      O1210   1.262       .  A
N1206      O1209   1.262       .  A
C1211      C1212   1.404       .  A
C1211      C1216   1.403       .  A
C1211      H1218   1.086       .  S
C1212      C1213   1.410       .  A
C1213      C1214   1.389       .  A
C1213      N1220   1.428       .  S
C1214      C1215   1.400       .  A
C1214      H1219   1.086   1_655  S
C1215      C1216   1.412       .  A
C1216      N1217   1.428       .  S
N1217      O1221   1.262       .  A
N1217      O1222   1.262       .  A
N1220      O1224   1.262       .  A
N1220      O1223   1.262   1_655  A
C1225      C1226   1.411       .  A
C1225      C1230   1.400       .  A
C1225      H1232   1.082       .  S
C1226      C1227   1.407   1_655  A
C1227      C1228   1.396   1_455  A
C1227      N1234   1.429       .  S
C1228      C1229   1.410       .  A
C1228      H1233   1.082   1_655  S
C1229      C1230   1.407       .  A
C1230      N1231   1.429       .  S
N1231      O1235   1.262       .  A
N1231      O1236   1.262       .  A
N1234      O1238   1.262       .  A
N1234      O1237   1.262       .  A
C1239      C1240   1.403       .  A
C1239      C1244   1.401   1_455  A
C1239      H1246   1.085       .  S
C1240      C1241   1.406   1_455  A
C1241      C1242   1.391       .  A
C1241      N1248   1.430   1_655  S
C1242      C1243   1.405       .  A
C1242      H1247   1.085       .  S
C1243      C1244   1.413       .  A
C1244      N1245   1.429       .  S
N1245      O1249   1.262       .  A
N1245      O1250   1.262       .  A
N1248      O1252   1.262       .  A
N1248      O1251   1.262       .  A
C1253      C1254   1.404       .  A
C1253      C1258   1.398       .  A
C1253      H1260   1.082       .  S
C1254      C1255   1.410       .  A
C1255      C1256   1.396       .  A
C1255      N1262   1.429       .  S
C1256      C1257   1.405       .  A
C1256      H1261   1.082       .  S
C1257      C1258   1.411       .  A
C1258      N1259   1.429       .  S
N1259      O1263   1.262       .  A
N1259      O1264   1.262       .  A
N1262      O1266   1.262       .  A
N1262      O1265   1.262       .  A
C1267      C1268   1.402       .  A
C1267      C1272   1.401       .  A
C1267      H1274   1.082       .  S
C1268      C1269   1.413       .  A
C1269      C1270   1.403       .  A
C1269      N1276   1.429       .  S
C1270      C1271   1.403       .  A
C1270      H1275   1.082       .  S
C1271      C1272   1.414       .  A
C1272      N1273   1.429       .  S
N1273      O1277   1.262       .  A
N1273      O1278   1.262       .  A
N1276      O1280   1.262       .  A
N1276      O1279   1.262       .  A
C1281      C1282   1.411       .  A
C1281      C1286   1.397       .  A
C1281      H1288   1.082       .  S
C1282      C1283   1.410       .  A
C1283      C1284   1.401       .  A
C1283      N1290   1.429       .  S
C1284      C1285   1.411       .  A
C1284      H1289   1.083       .  S
C1285      C1286   1.405       .  A
C1286      N1287   1.428       .  S
N1287      O1291   1.262       .  A
N1287      O1292   1.262       .  A
N1290      O1294   1.262       .  A
N1290      O1293   1.262       .  A
C1295      C1296   1.403       .  A
C1295      C1300   1.405       .  A
C1295      H1302   1.082       .  S
C1296      C1297   1.405       .  A
C1297      C1298   1.389       .  A
C1297      N1304   1.431   1_455  S
C1298      C1299   1.404       .  A
C1298      H1303   1.082       .  S
C1299      C1300   1.414       .  A
C1300      N1301   1.429       .  S
N1301      O1305   1.261       .  A
N1301      O1306   1.262       .  A
N1304      O1308   1.262   1_556  A
N1304      O1307   1.262       .  A
C1309      C1310   1.404   1_455  A
C1309      C1314   1.396       .  A
C1309      H1316   1.082       .  S
C1310      C1311   1.413       .  A
C1311      C1312   1.399       .  A
C1311      N1318   1.429       .  S
C1312      C1313   1.404       .  A
C1312      H1317   1.082       .  S
C1313      C1314   1.412   1_655  A
C1314      N1315   1.429       .  S
N1315      O1319   1.262   1_556  A
N1315      O1320   1.262       .  A
N1318      O1322   1.262       .  A
N1318      O1321   1.262       .  A
C1323      C1324   1.398       .  A
C1323      C1328   1.397       .  A
C1323      H1330   1.084       .  S
C1324      C1325   1.419   1_655  A
C1325      C1326   1.403       .  A
C1325      N1332   1.429       .  S
C1326      C1327   1.402       .  A
C1326      H1331   1.084       .  S
C1327      C1328   1.419   1_455  A
C1328      N1329   1.428       .  S
N1329      O1333   1.261       .  A
N1329      O1334   1.262       .  A
N1332      O1336   1.262       .  A
N1332      O1335   1.262       .  A
C1337      C1338   1.404       .  A
C1337      C1342   1.404   1_455  A
C1337      H1344   1.083       .  S
C1338      C1339   1.406       .  A
C1339      C1340   1.388   1_455  A
C1339      N1346   1.430       .  S
C1340      C1341   1.404       .  A
C1340      H1345   1.083       .  S
C1341      C1342   1.414       .  A
C1342      N1343   1.429       .  S
N1343      O1347   1.262       .  A
N1343      O1348   1.262       .  A
N1346      O1350   1.262       .  A
N1346      O1349   1.262       .  A
C1351      C1352   1.406       .  A
C1351      C1356   1.403       .  A
C1351      H1358   1.085       .  S
C1352      C1353   1.413   1_554  A
C1353      C1354   1.403   1_556  A
C1353      N1360   1.429       .  S
C1354      C1355   1.406       .  A
C1354      H1359   1.085       .  S
C1355      C1356   1.413       .  A
C1356      N1357   1.429       .  S
N1357      O1361   1.262       .  A
N1357      O1362   1.262       .  A
N1360      O1364   1.261       .  A
N1360      O1363   1.261       .  A
C1365      C1366   1.411       .  A
C1365      C1370   1.401       .  A
C1365      H1372   1.082       .  S
C1366      C1367   1.407       .  A
C1367      C1368   1.399       .  A
C1367      N1374   1.429       .  S
C1368      C1369   1.411       .  A
C1368      H1373   1.082       .  S
C1369      C1370   1.408       .  A
C1370      N1371   1.429       .  S
N1371      O1375   1.262       .  A
N1371      O1376   1.262       .  A
N1374      O1378   1.262       .  A
N1374      O1377   1.262       .  A
C1379      C1380   1.406       .  A
C1379      C1384   1.395       .  A
C1379      H1386   1.083       .  S
C1380      C1381   1.404       .  A
C1381      C1382   1.398       .  A
C1381      N1388   1.429   1_554  S
C1382      C1383   1.407       .  A
C1382      H1387   1.083   1_554  S
C1383      C1384   1.403       .  A
C1384      N1385   1.429       .  S
N1385      O1389   1.262       .  A
N1385      O1390   1.262       .  A
N1388      O1392   1.262       .  A
N1388      O1391   1.262       .  A
C1393      C1394   1.405       .  A
C1393      C1398   1.398       .  A
C1393      H1400   1.083       .  S
C1394      C1395   1.412       .  A
C1395      C1396   1.398       .  A
C1395      N1402   1.429       .  S
C1396      C1397   1.404       .  A
C1396      H1401   1.083       .  S
C1397      C1398   1.412       .  A
C1398      N1399   1.429       .  S
N1399      O1403   1.262       .  A
N1399      O1404   1.262       .  A
N1402      O1406   1.262       .  A
N1402      O1405   1.262       .  A
C1407      C1408   1.412       .  A
C1407      C1412   1.402       .  A
C1407      H1414   1.083       .  S
C1408      C1409   1.407       .  A
C1409      C1410   1.398       .  A
C1409      N1416   1.429       .  S
C1410      C1411   1.411       .  A
C1410      H1415   1.083       .  S
C1411      C1412   1.408       .  A
C1412      N1413   1.429       .  S
N1413      O1417   1.262       .  A
N1413      O1418   1.262       .  A
N1416      O1420   1.262       .  A
N1416      O1419   1.262       .  A
C1421      C1422   1.402       .  A
C1421      C1426   1.399       .  A
C1421      H1428   1.082       .  S
C1422      C1423   1.402       .  A
C1423      C1424   1.397       .  A
C1423      N1430   1.430       .  S
C1424      C1425   1.408       .  A
C1424      H1429   1.082       .  S
C1425      C1426   1.409       .  A
C1426      N1427   1.428       .  S
N1427      O1431   1.262       .  A
N1427      O1432   1.262       .  A
N1430      O1434   1.262       .  A
N1430      O1433   1.262       .  A
C1435      C1436   1.400       .  A
C1435      C1440   1.398       .  A
C1435      H1442   1.082       .  S
C1436      C1437   1.418       .  A
C1437      C1438   1.401       .  A
C1437      N1444   1.430       .  S
C1438      C1439   1.402       .  A
C1438      H1443   1.082       .  S
C1439      C1440   1.418       .  A
C1440      N1441   1.429       .  S
N1441      O1445   1.262       .  A
N1441      O1446   1.262       .  A
N1444      O1448   1.262       .  A
N1444      O1447   1.262       .  A
C1449      C1450   1.408       .  A
C1449      C1454   1.402       .  A
C1449      H1456   1.084       .  S
C1450      C1451   1.412       .  A
C1451      C1452   1.404   1_565  A
C1451      N1458   1.428       .  S
C1452      C1453   1.405       .  A
C1452      H1457   1.084       .  S
C1453      C1454   1.410   1_545  A
C1454      N1455   1.429       .  S
N1455      O1459   1.262       .  A
N1455      O1460   1.262       .  A
N1458      O1462   1.262   1_565  A
N1458      O1461   1.262       .  A
C1463      C1464   1.403       .  A
C1463      C1468   1.394       .  A
C1463      H1470   1.083       .  S
C1464      C1465   1.412       .  A
C1465      C1466   1.398       .  A
C1465      N1472   1.429       .  S
C1466      C1467   1.404       .  A
C1466      H1471   1.083       .  S
C1467      C1468   1.411       .  A
C1468      N1469   1.429       .  S
N1469      O1473   1.262       .  A
N1469      O1474   1.262       .  A
N1472      O1476   1.262       .  A
N1472      O1475   1.262       .  A
