geometry optimzed in LAMMPS
_audit_creation_date              2020-12-01 
_audit_creation_method            'lammps2cif' 
_symmetry_space_group_name_H-M    'P1' 
_symmetry_Int_Tables_number       1 
_symmetry_cell_setting            triclinic 
loop_ 
_symmetry_equiv_pos_as_xyz 
  x,y,z 
_cell_length_a                    32.59626627 
_cell_length_b                    32.924176165681104 
_cell_length_c                    63.93362875642442 
_cell_angle_alpha                 89.72418002011942 
_cell_angle_beta                  90.02892349700831 
_cell_angle_gamma                 89.98756282404729 
loop_ 
_atom_site_label 
_atom_site_type_symbol 
_atom_site_fract_x 
_atom_site_fract_y 
_atom_site_fract_z 
_atom_site_charge 
In1        In  0.86990592  0.65022806  0.78659558     1.36900
C2          C  0.93750028  0.69525080  0.78755377     0.77200
O3          O  0.85240109  0.69087358  0.75962439    -0.61200
O4          O  0.80664649  0.67560601  0.78176782    -0.52100
C5          C  0.86701330  0.57902691  0.76712533     0.69900
O6          O  0.89678205  0.60326799  0.76571114    -0.47000
C7          C  0.86752998  0.63476444  0.82756383     0.74600
O8          O  0.93776352  0.65892339  0.78141136    -0.58900
O9          O  0.84539858  0.66158163  0.81908588    -0.49000
O10         O  0.90272779  0.70817392  0.79297493    -0.55300
C11         C  0.81577810  0.69556080  0.76552084     0.84800
O12         O  0.83739835  0.59219616  0.77784422    -0.57200
O13         O  0.88899252  0.61504780  0.81486746    -0.60500
In14       In  0.14323099  0.85117318  0.79267685     1.36900
C15         C  0.07874213  0.80143026  0.79051395     0.77200
O16         O  0.16484015  0.81915362  0.76372911    -0.61200
O17         O  0.20616927  0.82393201  0.78915035    -0.52100
C18         C  0.14714319  0.92479226  0.77498798     0.69900
O19         O  0.11493761  0.90362355  0.77547678    -0.47000
C20         C  0.14255380  0.86640057  0.83372059     0.74600
O21         O  0.07860554  0.83701784  0.78317206    -0.58900
O22         O  0.16779299  0.84229759  0.82545875    -0.49000
O23         O  0.11239147  0.79089404  0.79860238    -0.55300
C24         C  0.19978005  0.81041125  0.77098841     0.84800
O25         O  0.17762857  0.90798663  0.78356804    -0.57200
O26         O  0.11861017  0.88302772  0.82087524    -0.60500
In27       In  0.64749846  0.85326271  0.70446709     1.36900
C28         C  0.58027229  0.80829082  0.70609790     0.77200
O29         O  0.61581752  0.87597614  0.67576618    -0.61200
O30         O  0.67531569  0.85110676  0.67223078    -0.52100
C31         C  0.65221640  0.92488589  0.72362199     0.69900
O32         O  0.63440428  0.89458656  0.73149460    -0.47000
C33         C  0.70371194  0.80625711  0.72318252     0.74600
O34         O  0.58021995  0.84558463  0.71058521    -0.58900
O35         O  0.71092074  0.82507884  0.70630729    -0.49000
O36         O  0.61462638  0.79448809  0.70052483    -0.55300
C37         C  0.64448777  0.86700204  0.66341618     0.84800
O38         O  0.66918133  0.91814338  0.70631231    -0.57200
O39         O  0.66851416  0.81280590  0.73051859    -0.60500
In40       In  0.36845962  0.66126131  0.70582606     1.36900
C41         C  0.43444947  0.70886303  0.70677204     0.77200
O42         O  0.39287530  0.62602982  0.67879262    -0.61200
O43         O  0.34476609  0.66752175  0.67288478    -0.52100
C44         C  0.36520739  0.58931669  0.72477082     0.69900
O45         O  0.39553336  0.61287685  0.72567734    -0.47000
C46         C  0.31300979  0.70588216  0.72608557     0.74600
O47         O  0.43301060  0.67484453  0.71583212    -0.58900
O48         O  0.30639076  0.69100449  0.70825078    -0.49000
O49         O  0.40210640  0.71838768  0.69712612    -0.55300
C50         C  0.36989111  0.64240642  0.66538042     0.84800
O51         O  0.33508933  0.60334233  0.71460666    -0.57200
O52         O  0.34744135  0.69656740  0.73369464    -0.60500
In53       In  0.87469691  0.34941165  0.70910524     1.36900
C54         C  0.93857938  0.29940604  0.71021310     0.77200
O55         O  0.85406188  0.31408841  0.73722308    -0.61200
O56         O  0.81619046  0.31538397  0.71022014    -0.52100
C57         C  0.86885205  0.41996399  0.72890172     0.69900
O58         O  0.90240580  0.40232502  0.72533586    -0.47000
C59         C  0.87230796  0.37015091  0.66870158     0.74600
O60         O  0.93659130  0.33129100  0.72100357    -0.58900
O61         O  0.84502966  0.34871245  0.67728454    -0.49000
O62         O  0.90773755  0.29337990  0.69879470    -0.55300
C63         C  0.82172273  0.30176803  0.72848547     0.84800
O64         O  0.83770036  0.40113278  0.72241068    -0.57200
O65         O  0.89974871  0.38221444  0.68108073    -0.60500
In66       In  0.14926745  0.15005806  0.71033716     1.36900
C67         C  0.08213580  0.19642141  0.71223482     0.77200
O68         O  0.17787352  0.18126837  0.73768237    -0.61200
O69         O  0.21122007  0.18042948  0.70922830    -0.52100
C70         C  0.14887178  0.08074976  0.73214808     0.69900
O71         O  0.11812578  0.10389352  0.73079218    -0.47000
C72         C  0.15178278  0.13448821  0.66924455     0.74600
O73         O  0.08092483  0.15915864  0.70798021    -0.58900
O74         O  0.14440073  0.10789868  0.68288150    -0.49000
O75         O  0.11751699  0.20955951  0.71601589    -0.55300
C76         C  0.20930264  0.19309135  0.72784982     0.84800
O77         O  0.18043284  0.09387988  0.72287348    -0.57200
O78         O  0.16049874  0.16869865  0.67677726    -0.60500
In79       In  0.37564054  0.35927838  0.78340772     1.36900
C80         C  0.44095206  0.31137844  0.78173313     0.77200
O81         O  0.40720077  0.38586473  0.81140932    -0.61200
O82         O  0.34525494  0.36806963  0.81460665    -0.52100
C83         C  0.36855726  0.43006294  0.76343412     0.69900
O84         O  0.40205894  0.41158033  0.76574569    -0.47000
C85         C  0.32219044  0.30782768  0.76610514     0.74600
O86         O  0.43728500  0.34278189  0.77052697    -0.58900
O87         O  0.31903347  0.32051285  0.78461796    -0.49000
O88         O  0.41091740  0.30454170  0.79367931    -0.55300
C89         C  0.37670617  0.38248284  0.82333447     0.84800
O90         O  0.33809906  0.41187418  0.77116402    -0.57200
O91         O  0.35219822  0.32268989  0.75623309    -0.60500
In92       In  0.64268754  0.15183448  0.78330585     1.36900
C93         C  0.57908966  0.20185513  0.78106363     0.77200
O94         O  0.60981793  0.12902784  0.81149877    -0.61200
O95         O  0.67216846  0.14637042  0.81491105    -0.52100
C96         C  0.64812339  0.08053065  0.76447417     0.69900
O97         O  0.62554328  0.10877825  0.75772506    -0.47000
C98         C  0.70170374  0.19457709  0.76546311     0.74600
O99         O  0.57625613  0.16443552  0.77724474    -0.58900
O100        O  0.69923571  0.18992757  0.78502347    -0.49000
O101        O  0.61466906  0.21377963  0.78559713    -0.55300
C102        C  0.64007398  0.13299988  0.82359024     0.84800
O103        O  0.66850658  0.08918035  0.78058281    -0.57200
O104        O  0.67466395  0.17601647  0.75516539    -0.60500
In105      In  0.10676984  0.38814708  0.03471866     1.36900
C106        C  0.05613525  0.32481375  0.03407634     0.77200
O107        O  0.14243942  0.36128302  0.06140457    -0.61200
O108        O  0.10678250  0.41342991  0.06742995    -0.52100
C109        C  0.17741248  0.39274373  0.01416500     0.69900
O110        O  0.15507953  0.36155682  0.01441729    -0.47000
C111        C  0.05990600  0.44238735  0.01524849     0.74600
O112        O  0.09188979  0.32377296  0.02664170    -0.58900
O113        O  0.07272059  0.44736347  0.03371619    -0.49000
O114        O  0.04640516  0.35840839  0.04196227    -0.55300
C115        C  0.13022945  0.38643963  0.07475542     0.84800
O116        O  0.16258560  0.42282932  0.02372989    -0.57200
O117        O  0.07249636  0.41033232  0.00664911    -0.60500
In118      In  0.90316935  0.11866124  0.03484210     1.36900
C119        C  0.95168287  0.18314510  0.03275476     0.77200
O120        O  0.88313882  0.15242790  0.06321121    -0.61200
O121        O  0.89603157  0.08965235  0.06645094    -0.52100
C122        C  0.83216932  0.11143572  0.01467886     0.69900
O123        O  0.86121405  0.13293834  0.00790547    -0.47000
C124        C  0.95047281  0.06117910  0.01887118     0.74600
O125        O  0.91366471  0.18506691  0.02909743    -0.58900
O126        O  0.93950933  0.06119595  0.03778483    -0.49000
O127        O  0.96455720  0.14814919  0.03734612    -0.55300
C128        C  0.88524463  0.12212890  0.07529952     0.84800
O129        O  0.83954619  0.09325817  0.03161236    -0.57200
O130        O  0.93606906  0.09007095  0.00813946    -0.60500
In131      In  0.10279851  0.88503354  0.96354666     1.36900
C132        C  0.05279943  0.82135559  0.96480419     0.77200
O133        O  0.07271238  0.91297384  0.99153540    -0.61200
O134        O  0.07086450  0.94496617  0.96274256    -0.52100
C135        C  0.17598252  0.89280877  0.98141630     0.69900
O136        O  0.14749955  0.87202622  0.98941725    -0.47000
C137        C  0.12051030  0.88138321  0.92316414     0.74600
O138        O  0.08960763  0.81969384  0.97087927    -0.58900
O139        O  0.10108031  0.91077123  0.93109097    -0.49000
O140        O  0.04165940  0.85584306  0.95842991    -0.55300
C141        C  0.06025670  0.94388096  0.98170087     0.84800
O142        O  0.16688198  0.90968483  0.96432985    -0.57200
O143        O  0.13085145  0.85427613  0.93612580    -0.60500
In144      In  0.90234776  0.61344024  0.95803748     1.36900
C145        C  0.95010945  0.67842240  0.96137913     0.77200
O146        O  0.92916094  0.58340628  0.98604073    -0.61200
O147        O  0.94070480  0.55649424  0.95660427    -0.52100
C148        C  0.83027833  0.60477149  0.97686250     0.69900
O149        O  0.85847482  0.62684967  0.98401442    -0.47000
C150        C  0.88695567  0.61900684  0.91731434     0.74600
O151        O  0.91170492  0.68011815  0.96355207    -0.58900
O152        O  0.90263950  0.58766892  0.92556507    -0.49000
O153        O  0.96367598  0.64335631  0.95785186    -0.55300
C154        C  0.94694155  0.55554342  0.97611944     0.84800
O155        O  0.83911654  0.58656201  0.96016625    -0.57200
O156        O  0.87878820  0.64676799  0.93011749    -0.60500
In157      In  0.40906577  0.89126961  0.03764280     1.36900
C158        C  0.45474705  0.82440445  0.03803678     0.77200
O159        O  0.44906711  0.91026685  0.01103347    -0.61200
O160        O  0.43738427  0.95357803  0.03467564    -0.52100
C161        C  0.33739839  0.89899678  0.01798690     0.69900
O162        O  0.36510510  0.87520625  0.01185185    -0.47000
C163        C  0.39204472  0.88915551  0.07837102     0.74600
O164        O  0.41830074  0.82501485  0.03135414    -0.58900
O165        O  0.41359136  0.91693726  0.07020737    -0.49000
O166        O  0.46778644  0.85828831  0.04433929    -0.55300
C167        C  0.45565110  0.94550702  0.01777788     0.84800
O168        O  0.34670481  0.91952027  0.03386212    -0.57200
O169        O  0.37891501  0.86332552  0.06552805    -0.60500
In170      In  0.60255754  0.61287420  0.03792518     1.36900
C171        C  0.55757931  0.68064072  0.03798517     0.77200
O172        O  0.56993157  0.59138367  0.00949726    -0.61200
O173        O  0.56853802  0.55372664  0.03650425    -0.52100
C174        C  0.67358276  0.60361031  0.01820440     0.69900
O175        O  0.64700792  0.62915032  0.01249601    -0.47000
C176        C  0.62013901  0.61026349  0.07850351     0.74600
O177        O  0.59564974  0.68046389  0.03461837    -0.58900
O178        O  0.59604847  0.58530884  0.06997429    -0.49000
O179        O  0.54264755  0.64590383  0.04126643    -0.55300
C180        C  0.55712832  0.55904235  0.01780916     0.84800
O181        O  0.66335457  0.58200403  0.03364820    -0.57200
O182        O  0.63554629  0.63581488  0.06604015    -0.60500
In183      In  0.40769002  0.39163534  0.95349175     1.36900
C184        C  0.45470376  0.32555746  0.95346100     0.77200
O185        O  0.37318643  0.37360486  0.92463603    -0.61200
O186        O  0.41661753  0.42083181  0.92181473    -0.52100
C187        C  0.33552708  0.39480636  0.97296457     0.69900
O188        O  0.35639171  0.36279894  0.97129794    -0.47000
C189        C  0.45281286  0.44346735  0.97541856     0.74600
O190        O  0.41925473  0.32625690  0.96125918    -0.58900
O191        O  0.43687842  0.45232891  0.95800459    -0.49000
O192        O  0.46625162  0.35897269  0.94577923    -0.55300
C193        C  0.39087981  0.39853648  0.91271846     0.84800
O194        O  0.35194496  0.42563801  0.96471710    -0.57200
O195        O  0.44431630  0.40827735  0.98191657    -0.60500
In196      In  0.60403114  0.11587691  0.95356983     1.36900
C197        C  0.55867808  0.18306031  0.95314517     0.77200
O198        O  0.64117204  0.13480712  0.92574620    -0.61200
O199        O  0.59288239  0.09302953  0.92089262    -0.52100
C200        C  0.67459415  0.11059899  0.97413484     0.69900
O201        O  0.64863537  0.13812719  0.97762195    -0.47000
C202        C  0.55901909  0.06164541  0.97441707     0.74600
O203        O  0.59558782  0.18253308  0.95904498    -0.58900
O204        O  0.57926106  0.05251533  0.95827351    -0.49000
O205        O  0.54520081  0.14908974  0.94726209    -0.55300
C206        C  0.62130439  0.11385774  0.91281639     0.84800
O207        O  0.66415624  0.08534150  0.96037230    -0.57200
O208        O  0.56316543  0.09796461  0.98006730    -0.60500
In209      In  0.41456708  0.61571379  0.53653923     1.36900
C210        C  0.45884448  0.68308803  0.53457690     0.77200
O211        O  0.38230569  0.64286135  0.56380694    -0.61200
O212        O  0.42294406  0.59361370  0.56938806    -0.52100
C213        C  0.34359006  0.60468852  0.51682056     0.69900
O214        O  0.37139016  0.62772744  0.50993219    -0.47000
C215        C  0.46137811  0.55983071  0.51867966     0.74600
O216        O  0.42183607  0.68194467  0.52881729    -0.58900
O217        O  0.44323861  0.55354517  0.53583981    -0.49000
O218        O  0.47253706  0.64984615  0.54148516    -0.55300
C219        C  0.39883245  0.61957259  0.57706841     0.84800
O220        O  0.35270260  0.58642875  0.53353612    -0.57200
O221        O  0.45477179  0.59433497  0.51084972    -0.60500
In222      In  0.61029583  0.88995917  0.53338545     1.36900
C223        C  0.56402400  0.82394708  0.53281488     0.77200
O224        O  0.63829895  0.86244242  0.56190671    -0.61200
O225        O  0.60206850  0.91559128  0.56553180    -0.52100
C226        C  0.68346414  0.89466812  0.51539297     0.69900
O227        O  0.65406925  0.87507867  0.50759589    -0.47000
C228        C  0.56455750  0.94604509  0.51430727     0.74600
O229        O  0.60156000  0.82334670  0.52807987    -0.58900
O230        O  0.58203756  0.95204474  0.53163601    -0.49000
O231        O  0.55041662  0.85841511  0.53765298    -0.55300
C232        C  0.62312985  0.88810524  0.57424468     0.84800
O233        O  0.67487889  0.91366836  0.53186216    -0.57200
O234        O  0.57277204  0.91212701  0.50626764    -0.60500
In235      In  0.60944399  0.38472037  0.45970123     1.36900
C236        C  0.56142344  0.31978248  0.45942099     0.77200
O237        O  0.57151962  0.40444359  0.48685041    -0.61200
O238        O  0.58403022  0.44730995  0.46284679    -0.52100
C239        C  0.67989823  0.38930921  0.48050679     0.69900
O240        O  0.65397793  0.36150937  0.48348302    -0.47000
C241        C  0.62508663  0.38686487  0.41875106     0.74600
O242        O  0.59895974  0.31808890  0.46413475    -0.58900
O243        O  0.64272985  0.36276965  0.43120687    -0.49000
O244        O  0.54854369  0.35494452  0.45514647    -0.55300
C245        C  0.56618535  0.43996727  0.47997398     0.84800
O246        O  0.66929237  0.41527324  0.46699316    -0.57200
O247        O  0.60023952  0.41067202  0.42748497    -0.60500
In248      In  0.40556700  0.11490042  0.45621516     1.36900
C249        C  0.45381356  0.18028822  0.45588544     0.77200
O250        O  0.44075600  0.09062439  0.48343063    -0.61200
O251        O  0.43492098  0.05302628  0.45682406    -0.52100
C252        C  0.33573686  0.10971668  0.47762761     0.69900
O253        O  0.36474232  0.13264528  0.48301147    -0.47000
C254        C  0.38641437  0.11256354  0.41580965     0.74600
O255        O  0.41602450  0.18178752  0.45993648    -0.58900
O256        O  0.40976819  0.08693359  0.42445704    -0.49000
O257        O  0.46674426  0.14523166  0.45166988    -0.55300
C258        C  0.44992543  0.05745147  0.47486248     0.84800
O259        O  0.34284826  0.08918345  0.46146137    -0.57200
O260        O  0.37242099  0.13914068  0.42802292    -0.60500
In261      In  0.91522224  0.88345155  0.45770738     1.36900
C262        C  0.96246086  0.81732118  0.45807144     0.77200
O263        O  0.88314858  0.85962007  0.42932820    -0.61200
O264        O  0.92276521  0.91001982  0.42546808    -0.52100
C265        C  0.84257603  0.88826172  0.47640934     0.69900
O266        O  0.87034258  0.86442768  0.48257135    -0.47000
C267        C  0.95783525  0.94034767  0.47780316     0.74600
O268        O  0.92605441  0.81739053  0.46466933    -0.58900
O269        O  0.94424492  0.94538840  0.45951147    -0.49000
O270        O  0.97457104  0.85133419  0.45141768    -0.55300
C271        C  0.89886635  0.88502116  0.41685434     0.84800
O272        O  0.85235266  0.91019684  0.46099888    -0.57200
O273        O  0.94857481  0.90660286  0.48585177    -0.60500
In274      In  0.11426355  0.60886345  0.45518918     1.36900
C275        C  0.06794983  0.67580773  0.45509056     0.77200
O276        O  0.14248221  0.63454700  0.42602365    -0.61200
O277        O  0.10771655  0.58042707  0.42337863    -0.52100
C278        C  0.18669860  0.60306345  0.47478273     0.69900
O279        O  0.15663019  0.62204786  0.48230618    -0.47000
C280        C  0.06888804  0.55230158  0.47469224     0.74600
O281        O  0.10591316  0.67651155  0.45887218    -0.58900
O282        O  0.08473800  0.54670325  0.45691051    -0.49000
O283        O  0.05397626  0.64096454  0.45131674    -0.55300
C284        C  0.12830637  0.60756658  0.41409466     0.84800
O285        O  0.17951471  0.58633497  0.45750654    -0.57200
O286        O  0.07766274  0.58616981  0.48264162    -0.60500
In287      In  0.91240092  0.38719822  0.53860169     1.36900
C288        C  0.95936983  0.32082422  0.53749855     0.77200
O289        O  0.94957382  0.40616592  0.51046213    -0.61200
O290        O  0.94365066  0.44763094  0.53551836    -0.52100
C291        C  0.83966518  0.39244800  0.51982520     0.69900
O292        O  0.85697092  0.35929380  0.52420034    -0.47000
C293        C  0.89324265  0.39085549  0.57940622     0.74600
O294        O  0.92610920  0.32390375  0.52759764    -0.58900
O295        O  0.91937106  0.41379963  0.57092185    -0.49000
O296        O  0.96898025  0.35208749  0.54767443    -0.55300
C297        C  0.95947917  0.44023168  0.51791823     0.84800
O298        O  0.86016777  0.42349312  0.52466013    -0.57200
O299        O  0.87590262  0.36720347  0.56680950    -0.60500
In300      In  0.10866426  0.11141164  0.53947413     1.36900
C301        C  0.06225038  0.17765509  0.53896301     0.77200
O302        O  0.07189254  0.08859914  0.51254193    -0.61200
O303        O  0.07903024  0.04937200  0.53860791    -0.52100
C304        C  0.17883032  0.10429694  0.51892788     0.69900
O305        O  0.14996412  0.12662888  0.51263990    -0.47000
C306        C  0.12821040  0.11585725  0.57985341     0.74600
O307        O  0.09923490  0.17756408  0.53321819    -0.58900
O308        O  0.10660169  0.08739958  0.57247339    -0.49000
O309        O  0.04887786  0.14349872  0.54482375    -0.55300
C310        C  0.06359818  0.05466705  0.52066189     0.84800
O311        O  0.17164942  0.08497109  0.53557324    -0.57200
O312        O  0.14042252  0.14106222  0.56635222    -0.60500
In313      In  0.14625214  0.34350952  0.20417918     1.36900
C314        C  0.07990841  0.29602619  0.20574212     0.77200
O315        O  0.12760676  0.37931772  0.17582857    -0.61200
O316        O  0.17216319  0.33325077  0.17203245    -0.52100
C317        C  0.15208521  0.41691820  0.22132323     0.69900
O318        O  0.11849850  0.39901119  0.21809061    -0.47000
C319        C  0.19967020  0.29857385  0.22555453     0.74600
O320        O  0.08397783  0.32737211  0.21678632    -0.58900
O321        O  0.20636154  0.31160689  0.20727526    -0.49000
O322        O  0.10995819  0.28904752  0.19393545    -0.55300
C323        C  0.15037521  0.36015447  0.16340514     0.84800
O324        O  0.18332088  0.39697296  0.21582276    -0.57200
O325        O  0.16597087  0.31000915  0.23318310    -0.60500
In326      In  0.86727531  0.14931576  0.20541636     1.36900
C327        C  0.93730344  0.19101435  0.20766898     0.77200
O328        O  0.85751287  0.11102433  0.17676028    -0.61200
O329        O  0.86194156  0.17464628  0.17296433    -0.52100
C330        C  0.86935221  0.07789230  0.22525860     0.69900
O331        O  0.90090814  0.09899039  0.22185887    -0.47000
C332        C  0.80940865  0.19285719  0.22441131     0.74600
O333        O  0.93471171  0.15706452  0.19876892    -0.58900
O334        O  0.80644046  0.18233653  0.20547982    -0.49000
O335        O  0.90437422  0.20256715  0.21600867    -0.55300
C336        C  0.85919450  0.14058655  0.16421038     0.84800
O337        O  0.83654235  0.09393558  0.21881134    -0.57200
O338        O  0.84114327  0.17969389  0.23347334    -0.60500
In339      In  0.37195395  0.14474582  0.28548633     1.36900
C340        C  0.43906927  0.19121470  0.28462116     0.77200
O341        O  0.35046875  0.18151033  0.25816466    -0.61200
O342        O  0.31019405  0.17542984  0.28389357    -0.52100
C343        C  0.36859074  0.07168211  0.26783295     0.69900
O344        O  0.40161313  0.09015101  0.27156537    -0.47000
C345        C  0.36928249  0.12633624  0.32608250     0.74600
O346        O  0.42942438  0.16829277  0.26967390    -0.58900
O347        O  0.34711236  0.15370576  0.31799229    -0.49000
O348        O  0.41393305  0.19114102  0.29952158    -0.55300
C349        C  0.31622965  0.19049953  0.26596501     0.84800
O350        O  0.33668564  0.09101157  0.27283827    -0.57200
O351        O  0.39092519  0.10726639  0.31308877    -0.60500
In352      In  0.64483365  0.34680037  0.28917601     1.36900
C353        C  0.58138294  0.29595912  0.28663147     0.77200
O354        O  0.66674054  0.31475982  0.26036800    -0.61200
O355        O  0.70292774  0.31027791  0.28776061    -0.52100
C356        C  0.64951842  0.41983434  0.27109060     0.69900
O357        O  0.61615003  0.40150732  0.27428841    -0.47000
C358        C  0.64615594  0.36671481  0.32956783     0.74600
O359        O  0.58598492  0.32599460  0.27455124    -0.58900
O360        O  0.67602356  0.34952644  0.32068396    -0.49000
O361        O  0.60917271  0.29233113  0.30025313    -0.55300
C362        C  0.69811093  0.29974885  0.26895439     0.84800
O363        O  0.68066186  0.40073891  0.27743886    -0.57200
O364        O  0.61641226  0.37437835  0.31758650    -0.60500
In365      In  0.37659108  0.84443221  0.20772085     1.36900
C366        C  0.44285209  0.79804222  0.20825881     0.77200
O367        O  0.35421913  0.80817978  0.23528853    -0.61200
O368        O  0.31833894  0.80805248  0.20777134    -0.52100
C369        C  0.37037012  0.91581960  0.22656782     0.69900
O370        O  0.40331915  0.89593891  0.22552923    -0.47000
C371        C  0.37598096  0.86631811  0.16771898     0.74600
O372        O  0.43470318  0.82256495  0.22274320    -0.58900
O373        O  0.34938972  0.84294553  0.17561703    -0.49000
O374        O  0.41682428  0.79715450  0.19373930    -0.55300
C375        C  0.32254990  0.79520837  0.22625946     0.84800
O376        O  0.34021342  0.89894622  0.21781975    -0.57200
O377        O  0.40201443  0.87955722  0.18059635    -0.60500
In378      In  0.65092376  0.64666172  0.20786059     1.36900
C379        C  0.58551595  0.69471479  0.20946039     0.77200
O380        O  0.67193197  0.68715034  0.23375639    -0.61200
O381        O  0.71391683  0.67501224  0.20944155    -0.52100
C382        C  0.65148314  0.57528031  0.22776855     0.69900
O383        O  0.61982626  0.59631322  0.22476421    -0.47000
C384        C  0.65028317  0.62743528  0.16730236     0.74600
O385        O  0.59492029  0.67068117  0.22406119    -0.58900
O386        O  0.67434319  0.65357132  0.17488739    -0.49000
O387        O  0.60971113  0.69410190  0.19411904    -0.55300
C388        C  0.70710214  0.69348598  0.22633894     0.84800
O389        O  0.68377540  0.59091875  0.22036110    -0.57200
O390        O  0.62805639  0.60994631  0.18073768    -0.60500
In391      In  0.87547747  0.84993671  0.28663263     1.36900
C392        C  0.94070319  0.80173223  0.28597801     0.77200
O393        O  0.90188020  0.88107223  0.31483690    -0.61200
O394        O  0.84916448  0.84480929  0.31905930    -0.52100
C395        C  0.86981924  0.92028498  0.26608063     0.69900
O396        O  0.89947422  0.89611513  0.26402334    -0.47000
C397        C  0.81994988  0.80456880  0.26697685     0.74600
O398        O  0.94240479  0.83880642  0.28107280    -0.58900
O399        O  0.81403806  0.81954146  0.28486251    -0.49000
O400        O  0.90553786  0.78950415  0.29119386    -0.55300
C401        C  0.87621435  0.86655491  0.32752912     0.84800
O402        O  0.84239195  0.90800213  0.27849171    -0.57200
O403        O  0.85396045  0.81408691  0.25890814    -0.60500
In404      In  0.14511970  0.64367471  0.28356036     1.36900
C405        C  0.07951027  0.69232434  0.28353590     0.77200
O406        O  0.12044110  0.61093349  0.31193206    -0.61200
O407        O  0.17313318  0.64735528  0.31559130    -0.52100
C408        C  0.14944076  0.57426692  0.26192241     0.69900
O409        O  0.12095866  0.59978114  0.25992280    -0.47000
C410        C  0.20159770  0.68951286  0.26478426     0.74600
O411        O  0.07813126  0.65577031  0.27791189    -0.58900
O412        O  0.20599342  0.67561281  0.28306376    -0.49000
O413        O  0.11465845  0.70388974  0.28907337    -0.55300
C414        C  0.14683450  0.62505393  0.32433692     0.84800
O415        O  0.17655243  0.58468624  0.27493828    -0.57200
O416        O  0.16887841  0.67851761  0.25595241    -0.60500
C417        C  0.05003646  0.76172447  0.28577044    -0.26700
C418        C  0.04339227  0.71972017  0.28374660    -0.14800
C419        C  0.00256626  0.70517623  0.28249308     0.35900
C420        C  0.96988342  0.73252151  0.28349600    -0.26100
C421        C  0.97658466  0.77440332  0.28541170    -0.15400
C422        C  0.01712778  0.78923982  0.28661884     0.37000
N423        N  0.02481063  0.83198193  0.28899805    -0.89600
H424        H  0.08111091  0.77323199  0.28676759     0.18100
H425        H  0.93885657  0.72083422  0.28250840     0.18100
N426        N  0.99303907  0.66291466  0.28047530    -0.88700
H427        H  0.05633220  0.83784882  0.28925007     0.35400
H428        H  0.01344365  0.84056802  0.30361549     0.40500
H429        H  0.00592794  0.64714220  0.29309563     0.40200
H430        H  0.00552587  0.65225230  0.26648769     0.35000
C431        C  0.72453668  0.74215569  0.25463588    -0.26700
C432        C  0.73696824  0.72104607  0.23665168    -0.14800
C433        C  0.77682873  0.72770025  0.22866749     0.35900
C434        C  0.80279994  0.75584316  0.23856135    -0.26100
C435        C  0.79029728  0.77701445  0.25651230    -0.15400
C436        C  0.75052504  0.77013558  0.26457396     0.37000
N437        N  0.73639083  0.79169070  0.28270549    -0.89600
H438        H  0.69402625  0.73727990  0.26087514     0.18100
H439        H  0.83337767  0.76066101  0.23240065     0.18100
N440        N  0.79102171  0.70584324  0.21065332    -0.88700
H441        H  0.70691575  0.78219986  0.28693997     0.35400
H442        H  0.73391940  0.82235040  0.27855997     0.40500
H443        H  0.79353309  0.67526446  0.21495794     0.40200
H444        H  0.82051488  0.71527793  0.20642745     0.35000
C445        C  0.25492287  0.76061600  0.22627896    -0.26700
C446        C  0.29245210  0.76762894  0.23639373    -0.14800
C447        C  0.30001485  0.74882272  0.25596432     0.35900
C448        C  0.26973742  0.72376811  0.26491659    -0.26100
C449        C  0.23220407  0.71670823  0.25474133    -0.15400
C450        C  0.22454242  0.73592101  0.23529945     0.37000
N451        N  0.18582711  0.73088366  0.22483970    -0.89600
H452        H  0.24880832  0.77518769  0.21137115     0.18100
H453        H  0.27573116  0.70933331  0.27987431     0.18100
N454        N  0.33832360  0.75489577  0.26666965    -0.88700
H455        H  0.18582304  0.74589521  0.21038608     0.35400
H456        H  0.16348993  0.74517857  0.23394211     0.40500
H457        H  0.36127978  0.74107289  0.25776738     0.40200
H458        H  0.33826376  0.74008232  0.28117123     0.35000
C459        C  0.53123958  0.73200692  0.19058599    -0.26700
C460        C  0.54892699  0.72104368  0.20980301    -0.14800
C461        C  0.53154537  0.73584650  0.22856099     0.35900
C462        C  0.49763307  0.76174397  0.22761261    -0.26100
C463        C  0.47964419  0.77215346  0.20839039    -0.15400
C464        C  0.49647096  0.75696851  0.18965151     0.37000
N465        N  0.47836003  0.76693646  0.16975642    -0.89600
H466        H  0.54432116  0.72058955  0.17618379     0.18100
H467        H  0.48466321  0.77304790  0.24207053     0.18100
N468        N  0.54781492  0.72569401  0.24873490    -0.88700
H469        H  0.49378083  0.75223070  0.15760833     0.35400
H470        H  0.48229792  0.79809232  0.16728064     0.40500
H471        H  0.57882951  0.73397111  0.24915602     0.40200
H472        H  0.54530580  0.69440533  0.25098872     0.35000
C473        C  0.68786007  0.51766526  0.24525769    -0.26700
C474        C  0.65066305  0.53575654  0.23910145    -0.14800
C475        C  0.61340767  0.51563409  0.24402675     0.35900
C476        C  0.61425388  0.47836121  0.25448288    -0.26100
C477        C  0.65130281  0.46002420  0.26047814    -0.15400
C478        C  0.68865547  0.48014399  0.25596172     0.37000
N479        N  0.72720793  0.46275906  0.26228076    -0.89600
H480        H  0.71652753  0.53286594  0.24172976     0.18100
H481        H  0.58530897  0.46355422  0.25789181     0.18100
N482        N  0.57402115  0.53173459  0.23847590    -0.88700
H483        H  0.75140053  0.48251115  0.25880022     0.35400
H484        H  0.73197623  0.43678783  0.25326128     0.40500
H485        H  0.57282349  0.53594003  0.22226964     0.40200
H486        H  0.56979388  0.55947263  0.24605639     0.35000
C487        C  0.40125930  0.96702567  0.24997093    -0.26700
C488        C  0.36800612  0.95539412  0.23740345    -0.14800
C489        C  0.33369792  0.98148374  0.23563130     0.35900
C490        C  0.33382558  0.01881890  0.24630064    -0.26100
C491        C  0.36776669  0.03082282  0.25831383    -0.15400
C492        C  0.40135502  0.00413039  0.26059925     0.37000
N493        N  0.43525135  0.01450805  0.27395620    -0.89600
H494        H  0.42733253  0.94686843  0.25170712     0.18100
H495        H  0.30791592  0.03921391  0.24467182     0.18100
N496        N  0.29927575  0.97049929  0.22277756    -0.88700
H497        H  0.45757444  0.99170127  0.27378943     0.35400
H498        H  0.42413011  0.01581784  0.28928045     0.40500
H499        H  0.30929169  0.97045207  0.20723956     0.40200
H500        H  0.27621096  0.99248480  0.22369731     0.35000
C501        C  0.48632458  0.23998127  0.26726252    -0.26700
C502        C  0.47664728  0.21618360  0.28480509    -0.14800
C503        C  0.50284721  0.21692330  0.30240701     0.35900
C504        C  0.53721234  0.24234685  0.30240726    -0.26100
C505        C  0.54609449  0.26762114  0.28523697    -0.15400
C506        C  0.52076170  0.26580242  0.26726940     0.37000
N507        N  0.52998749  0.29003883  0.24910923    -0.89600
H508        H  0.46649747  0.23896534  0.25366236     0.18100
H509        H  0.55669201  0.24282937  0.31614659     0.18100
N510        N  0.49591551  0.19140204  0.32028281    -0.88700
H511        H  0.50780624  0.28584842  0.23750960     0.35400
H512        H  0.55768609  0.27942383  0.24294128     0.40500
H513        H  0.49446020  0.16123498  0.31528505     0.40200
H514        H  0.46785610  0.19919310  0.32704707     0.35000
C515        C  0.90510111  0.97577607  0.24689432    -0.26700
C516        C  0.86850636  0.96013117  0.25522483    -0.14800
C517        C  0.83212041  0.98321182  0.25348154     0.35900
C518        C  0.83346086  0.02165160  0.24379215    -0.26100
C519        C  0.87026467  0.03758805  0.23575155    -0.15400
C520        C  0.90651105  0.01403544  0.23738200     0.37000
N521        N  0.94517395  0.02764654  0.22934205    -0.89600
H522        H  0.93325532  0.95838629  0.24806349     0.18100
H523        H  0.80548969  0.03927763  0.24251645     0.18100
N524        N  0.79391838  0.96754681  0.26133086    -0.88700
H525        H  0.95381211  0.05404131  0.23722181     0.35400
H526        H  0.94196251  0.03394585  0.21338853     0.40500
H527        H  0.78623903  0.94224018  0.25232191     0.40200
H528        H  0.77032950  0.98869599  0.25918073     0.35000
C529        C  0.78418086  0.22506971  0.25699243    -0.26700
C530        C  0.77929074  0.21918875  0.23537619    -0.14800
C531        C  0.74694190  0.23941081  0.22488640     0.35900
C532        C  0.72086279  0.26535471  0.23623324    -0.26100
C533        C  0.72629655  0.27170607  0.25780761    -0.15400
C534        C  0.75796438  0.25062925  0.26834527     0.37000
N535        N  0.76338456  0.25486272  0.29055179    -0.89600
H536        H  0.80860412  0.20938985  0.26521597     0.18100
H537        H  0.69637329  0.28107690  0.22807786     0.18100
N538        N  0.74070478  0.23393327  0.20281443    -0.88700
H539        H  0.78889928  0.23834545  0.29570322     0.35400
H540        H  0.73786526  0.24174138  0.29781918     0.40500
H541        H  0.76560907  0.24719519  0.19507361     0.40200
H542        H  0.71461441  0.24965906  0.19776667     0.35000
C543        C  0.11830366  0.48214260  0.22958542    -0.26700
C544        C  0.15367845  0.45801952  0.23069854    -0.14800
C545        C  0.18857439  0.47308681  0.24124374     0.35900
C546        C  0.18666711  0.51148696  0.25090735    -0.26100
C547        C  0.15069468  0.53515687  0.25029788    -0.15400
C548        C  0.11630554  0.52010628  0.23915240     0.37000
N549        N  0.07836565  0.54187874  0.23764061    -0.89600
H550        H  0.09145334  0.47118559  0.22134379     0.18100
H551        H  0.21325918  0.52266528  0.25926237     0.18100
N552        N  0.22538945  0.44915891  0.24257147    -0.88700
H553        H  0.08363159  0.56961511  0.23009714     0.35400
H554        H  0.06705925  0.54692898  0.25270163     0.40500
H555        H  0.21877245  0.42346508  0.25163524     0.40200
H556        H  0.24837602  0.46500646  0.25050659     0.35000
C557        C  0.25416327  0.23445303  0.26710664    -0.26700
C558        C  0.28606893  0.21729692  0.25529656    -0.14800
C559        C  0.28873342  0.22691407  0.23371079     0.35900
C560        C  0.26034831  0.25350744  0.22471134    -0.26100
C561        C  0.22876458  0.27109593  0.23651659    -0.15400
C562        C  0.22566028  0.26111119  0.25805248     0.37000
N563        N  0.19450719  0.27781372  0.27125890    -0.89600
H564        H  0.25156206  0.22754340  0.28364467     0.18100
H565        H  0.26300697  0.26019782  0.20815135     0.18100
N566        N  0.31933188  0.20979342  0.22030933    -0.88700
H567        H  0.16577975  0.26867465  0.26570918     0.35400
H568        H  0.19652259  0.30945658  0.27070979     0.40500
H569        H  0.31746882  0.17816327  0.22117638     0.40200
H570        H  0.34829922  0.21937228  0.22529656     0.35000
C571        C  0.97276732  0.25528195  0.21659641    -0.26700
C572        C  0.97496294  0.21629571  0.20783449    -0.14800
C573        C  0.01208699  0.20344960  0.19855052     0.35900
C574        C  0.04569051  0.23022367  0.19791114    -0.26100
C575        C  0.04332315  0.26930381  0.20658289    -0.15400
C576        C  0.00629748  0.28198662  0.21596828     0.37000
N577        N  0.00246238  0.32213664  0.22450353    -0.89600
H578        H  0.94435152  0.26546257  0.22362091     0.18100
H579        H  0.07409742  0.22028757  0.19078046     0.18100
N580        N  0.01565232  0.16351756  0.18972267    -0.88700
H581        H  0.97353931  0.32622763  0.23124688     0.35400
H582        H  0.00431337  0.34274859  0.21204901     0.40500
H583        H  0.01388099  0.14259778  0.20204758     0.40200
H584        H  0.04448857  0.15952062  0.18287755     0.35000
C585        C  0.99372227  0.21040767  0.53729013    -0.26700
C586        C  0.03646462  0.21460947  0.53868365    -0.14800
C587        C  0.05380135  0.25391335  0.53945457     0.35900
C588        C  0.02787617  0.28805158  0.53904838    -0.26100
C589        C  0.98515960  0.28383062  0.53733537    -0.15400
C590        C  0.96807122  0.24439828  0.53617904     0.37000
N591        N  0.92481339  0.23778026  0.53422336    -0.89600
H592        H  0.98010115  0.18041292  0.53658219     0.18100
H593        H  0.04112458  0.31818736  0.53988847     0.18100
N594        N  0.09752666  0.25910184  0.54080223    -0.88700
H595        H  0.91486208  0.25045154  0.52008908     0.35400
H596        H  0.90991843  0.25225602  0.54659942     0.40500
H597        H  0.10701352  0.24749657  0.55526246     0.40200
H598        H  0.10524311  0.28993506  0.54069060     0.35000
C599        C  0.11487027  0.59203341  0.35543572    -0.26700
C600        C  0.14565179  0.61744384  0.34728466    -0.14800
C601        C  0.17239477  0.63750307  0.36129439     0.35900
C602        C  0.16659714  0.63289380  0.38297959    -0.26100
C603        C  0.13485336  0.60866700  0.39110027    -0.15400
C604        C  0.10886645  0.58774749  0.37712254     0.37000
N605        N  0.07543148  0.56353009  0.38488376    -0.89600
H606        H  0.09425513  0.57657309  0.34482785     0.18100
H607        H  0.18677702  0.64879891  0.39363627     0.18100
N608        N  0.20455418  0.66345094  0.35358794    -0.88700
H609        H  0.05989932  0.54947404  0.37257334     0.35400
H610        H  0.05438990  0.58325456  0.39185679     0.40500
H611        H  0.22601544  0.64499640  0.34605996     0.40200
H612        H  0.22009121  0.67733021  0.36595036     0.35000
C613        C  0.03402184  0.52705372  0.50692950    -0.26700
C614        C  0.04166124  0.52240149  0.48543901    -0.14800
C615        C  0.02254765  0.49003789  0.47470140     0.35900
C616        C  0.99585893  0.46372109  0.48561105    -0.26100
C617        C  0.98790812  0.46874273  0.50705022    -0.15400
C618        C  0.00814093  0.50021804  0.51791599     0.37000
N619        N  0.00323977  0.50430773  0.54016117    -0.89600
H620        H  0.04898343  0.55139293  0.51534933     0.18100
H621        H  0.98085104  0.43934278  0.47724185     0.18100
N622        N  0.02984545  0.48412818  0.45275334    -0.88700
H623        H  0.01995806  0.52912548  0.54570965     0.35400
H624        H  0.01607329  0.47850384  0.54717793     0.40500
H625        H  0.01697183  0.50881424  0.44476878     0.40200
H626        H  0.01457280  0.45823434  0.44742699     0.35000
C627        C  0.86124406  0.85669652  0.38643585    -0.26700
C628        C  0.89050121  0.88428014  0.39400282    -0.14800
C629        C  0.91256012  0.90852675  0.37956407     0.35900
C630        C  0.90677693  0.90254454  0.35798341    -0.26100
C631        C  0.87878639  0.87362507  0.35042905    -0.15400
C632        C  0.85521288  0.85093329  0.36489715     0.37000
N633        N  0.82606605  0.82124369  0.35781145    -0.89600
H634        H  0.84373201  0.83847833  0.39740205     0.18100
H635        H  0.92455320  0.92043870  0.34698349     0.18100
N636        N  0.94129650  0.93853016  0.38673046    -0.88700
H637        H  0.81009388  0.80860070  0.37044088     0.35400
H638        H  0.84263174  0.79746420  0.35108118     0.40500
H639        H  0.92448245  0.96124873  0.39423040     0.40200
H640        H  0.95595714  0.95259504  0.37408218     0.35000
C641        C  0.01604384  0.03681113  0.49171100    -0.26700
C642        C  0.03706645  0.02458140  0.50990498    -0.14800
C643        C  0.03132941  0.98469403  0.51759692     0.35900
C644        C  0.00462380  0.95827845  0.50702851    -0.26100
C645        C  0.98369913  0.97050971  0.48883362    -0.15400
C646        C  0.98910498  0.01049801  0.48124213     0.37000
N647        N  0.96696854  0.02453040  0.46313503    -0.89600
H648        H  0.02000185  0.06744421  0.48578642     0.18100
H649        H  0.00073226  0.92758605  0.51288296     0.18100
N650        N  0.05272610  0.97089995  0.53596882    -0.88700
H651        H  0.97509561  0.05443862  0.45941346     0.35400
H652        H  0.93584298  0.02512679  0.46705504     0.40500
H653        H  0.08393368  0.96968975  0.53228474     0.40200
H654        H  0.04400115  0.94124194  0.53987756     0.35000
C655        C  0.03072215  0.78527069  0.45284484    -0.26700
C656        C  0.98897449  0.78067353  0.45783478    -0.14800
C657        C  0.97337129  0.74128467  0.46177010     0.35900
C658        C  0.99970687  0.70761857  0.46026172    -0.26100
C659        C  0.04147657  0.71234688  0.45552082    -0.15400
C660        C  0.05713360  0.75161511  0.45165571     0.37000
N661        N  0.09955638  0.75720454  0.44621585    -0.89600
H662        H  0.04288079  0.81532257  0.44973838     0.18100
H663        H  0.98769375  0.67747416  0.46329488     0.18100
N664        N  0.93090893  0.73533941  0.46704937    -0.88700
H665        H  0.10621099  0.78802714  0.44414718     0.35400
H666        H  0.10431546  0.74334653  0.43173283     0.40500
H667        H  0.92636614  0.74737107  0.48197338     0.40200
H668        H  0.92407331  0.70438197  0.46822691     0.35000
C669        C  0.40417059  0.09026545  0.37994679    -0.26700
C670        C  0.37800035  0.11242571  0.39303302    -0.14800
C671        C  0.34616146  0.13578338  0.38403502     0.35900
C672        C  0.34349875  0.13917803  0.36213604    -0.26100
C673        C  0.37113948  0.11875479  0.34899483    -0.15400
C674        C  0.40124561  0.09313294  0.35807682     0.37000
N675        N  0.42953004  0.07088029  0.34522179    -0.89600
H676        H  0.42826350  0.07182375  0.38679618     0.18100
H677        H  0.31983711  0.15818304  0.35530912     0.18100
N678        N  0.31666866  0.15592977  0.39709409    -0.88700
H679        H  0.44799906  0.05184280  0.35437246     0.35400
H680        H  0.44931982  0.09194937  0.33825653     0.40500
H681        H  0.30008044  0.13343158  0.40500398     0.40200
H682        H  0.29545513  0.17203185  0.38799805     0.35000
C683        C  0.25365920  0.11241044  0.51989618    -0.26700
C684        C  0.21862448  0.10265876  0.50824717    -0.14800
C685        C  0.22235448  0.09423103  0.48665070     0.35900
C686        C  0.26106249  0.09668864  0.47725567    -0.26100
C687        C  0.29607208  0.10751564  0.48875721    -0.15400
C688        C  0.29212806  0.11554461  0.51038967     0.37000
N689        N  0.32643407  0.12656957  0.52316498    -0.89600
H690        H  0.25086877  0.11899230  0.53643941     0.18100
H691        H  0.26365573  0.09042025  0.46067808     0.18100
N692        N  0.18804671  0.08262768  0.47381802    -0.88700
H693        H  0.33830582  0.15413856  0.51772948     0.35400
H694        H  0.34889435  0.10405408  0.52188677     0.40500
H695        H  0.16108748  0.07988118  0.48248906     0.40200
H696        H  0.19413194  0.05363125  0.46799860     0.35000
C697        C  0.66527730  0.36251987  0.38824294    -0.26700
C698        C  0.63255668  0.38605963  0.39583535    -0.14800
C699        C  0.60675659  0.40619478  0.38124319     0.35900
C700        C  0.61318157  0.40092638  0.35979296    -0.26100
C701        C  0.64466860  0.37581949  0.35226177    -0.15400
C702        C  0.67163933  0.35737684  0.36670292     0.37000
N703        N  0.70469526  0.33224538  0.35967995    -0.89600
H704        H  0.68567578  0.34715569  0.39908497     0.18100
H705        H  0.59243153  0.41572937  0.34891605     0.18100
N706        N  0.57285305  0.43095723  0.38754834    -0.88700
H707        H  0.70076944  0.30324933  0.36611258     0.35400
H708        H  0.73207879  0.34421837  0.36553276     0.40500
H709        H  0.58389494  0.45491717  0.39661577     0.40200
H710        H  0.55262068  0.41327039  0.39641416     0.35000
C711        C  0.77247372  0.36025714  0.51338026    -0.26700
C712        C  0.79830572  0.39383785  0.51033460    -0.14800
C713        C  0.78447571  0.42683196  0.49800702     0.35900
C714        C  0.74544020  0.42488305  0.48864144    -0.26100
C715        C  0.71982589  0.39096537  0.49153304    -0.15400
C716        C  0.73351936  0.35857426  0.50425292     0.37000
N717        N  0.70843388  0.32344770  0.50769392    -0.89600
H718        H  0.78259570  0.33486928  0.52293117     0.18100
H719        H  0.73511995  0.44991413  0.47891385     0.18100
N720        N  0.81050748  0.46136292  0.49432461    -0.88700
H721        H  0.70389961  0.32015091  0.52380116     0.35400
H722        H  0.72448536  0.29798524  0.50240547     0.40500
H723        H  0.81280384  0.47724065  0.50837936     0.40200
H724        H  0.79689694  0.48134027  0.48359533     0.35000
C725        C  0.52374366  0.21076126  0.45649251    -0.26700
C726        C  0.48099128  0.21630700  0.45643202    -0.14800
C727        C  0.46504021  0.25608632  0.45738441     0.35900
C728        C  0.49182303  0.28930027  0.45839027    -0.26100
C729        C  0.53449931  0.28372751  0.45870322    -0.15400
C730        C  0.55053313  0.24400485  0.45779320     0.37000
N731        N  0.59394709  0.23721561  0.45791907    -0.89600
H732        H  0.53656157  0.18042645  0.45579135     0.18100
H733        H  0.47901161  0.31964698  0.45905245     0.18100
N734        N  0.42167202  0.26307087  0.45716489    -0.88700
H735        H  0.60175975  0.22176547  0.44424070     0.35400
H736        H  0.60097497  0.21845958  0.47066841     0.40500
H737        H  0.41478529  0.28164113  0.44432443     0.40200
H738        H  0.41390379  0.27882298  0.47076151     0.35000
C739        C  0.72795232  0.89953821  0.48428661    -0.26700
C740        C  0.72461444  0.89457989  0.50597933    -0.14800
C741        C  0.76018678  0.88645465  0.51794962     0.35900
C742        C  0.79836103  0.88427395  0.50801030    -0.26100
C743        C  0.80180383  0.89013707  0.48632682    -0.15400
C744        C  0.76618209  0.89714701  0.47428260     0.37000
N745        N  0.76878237  0.90040914  0.45188941    -0.89600
H746        H  0.70049990  0.90481073  0.47509295     0.18100
H747        H  0.82551422  0.87808131  0.51728912     0.18100
N748        N  0.75822339  0.87856653  0.53999140    -0.88700
H749        H  0.73978699  0.90558472  0.44540298     0.35400
H750        H  0.77865194  0.87229550  0.44623225     0.40500
H751        H  0.73826933  0.85427490  0.54255532     0.40200
H752        H  0.74640054  0.90429149  0.54743565     0.35000
C753        C  0.49868489  0.03945012  0.50313340    -0.26700
C754        C  0.47757726  0.02754120  0.48503285    -0.14800
C755        C  0.48511175  0.98865131  0.47661246     0.35900
C756        C  0.51395422  0.96299899  0.48638827    -0.26100
C757        C  0.53547789  0.97517724  0.50440646    -0.15400
C758        C  0.52742172  0.01410792  0.51278595     0.37000
N759        N  0.54818276  0.02931960  0.53086977    -0.89600
H760        H  0.49347836  0.06926595  0.50973563     0.18100
H761        H  0.51941750  0.93313603  0.47991323     0.18100
N762        N  0.46377923  0.97530740  0.45819048    -0.88700
H763        H  0.57976443  0.02912957  0.52802325     0.35400
H764        H  0.54146409  0.01060250  0.54365561     0.40500
H765        H  0.43277342  0.97229631  0.46208486     0.40200
H766        H  0.47384804  0.94647715  0.45371084     0.35000
C767        C  0.30156723  0.60640418  0.48449886    -0.26700
C768        C  0.30344801  0.60054891  0.50623952    -0.14800
C769        C  0.26662633  0.59372922  0.51746247     0.35900
C770        C  0.22896811  0.59487739  0.50691803    -0.26100
C771        C  0.22712808  0.60114147  0.48522638    -0.15400
C772        C  0.26383643  0.60638388  0.47383295     0.37000
N773        N  0.26259895  0.61289741  0.45158942    -0.89600
H774        H  0.32966637  0.61146597  0.47581235     0.18100
H775        H  0.20088844  0.59054928  0.51572419     0.18100
N776        N  0.26628637  0.58675812  0.53960096    -0.88700
H777        H  0.29228038  0.61585124  0.44555999     0.35400
H778        H  0.24782223  0.64060855  0.44887420     0.40500
H779        H  0.28052365  0.61114481  0.54697299     0.40200
H780        H  0.28282029  0.56012377  0.54281640     0.35000
C781        C  0.49458737  0.49182249  0.51857667    -0.26700
C782        C  0.48839729  0.52946023  0.50864556    -0.14800
C783        C  0.50867131  0.53768818  0.48952183     0.35900
C784        C  0.53440340  0.50814577  0.48085657    -0.26100
C785        C  0.54033725  0.47041768  0.49065558    -0.15400
C786        C  0.52037305  0.46220507  0.50985530     0.37000
N787        N  0.52595979  0.42391268  0.52039659    -0.89600
H788        H  0.47935403  0.48546048  0.53328929     0.18100
H789        H  0.54948001  0.51454441  0.46610617     0.18100
N790        N  0.50329346  0.57591410  0.47888129    -0.88700
H791        H  0.50778108  0.42229897  0.53384735     0.35400
H792        H  0.55641549  0.42261379  0.52548993     0.40500
H793        H  0.47318396  0.57678173  0.47324457     0.40200
H794        H  0.52230339  0.57781731  0.46574812     0.35000
C795        C  0.52755272  0.71474107  0.53491565    -0.26700
C796        C  0.48487366  0.71975235  0.53328762    -0.14800
C797        C  0.46842491  0.75921673  0.53094662     0.35900
C798        C  0.49506681  0.79270481  0.53100444    -0.26100
C799        C  0.53769422  0.78757373  0.53273971    -0.15400
C800        C  0.55418285  0.74812492  0.53456233     0.37000
N801        N  0.59773071  0.74200110  0.53636343    -0.89600
H802        H  0.54032901  0.68450676  0.53654752     0.18100
H803        H  0.48246936  0.82302908  0.52941212     0.18100
N804        N  0.42493094  0.76539507  0.52892754    -0.88700
H805        H  0.60474041  0.71102183  0.53696862     0.35400
H806        H  0.60704147  0.75422404  0.55066303     0.40500
H807        H  0.41611759  0.75396868  0.51437259     0.40200
H808        H  0.41799234  0.79640046  0.52855894     0.35000
C809        C  0.49004213  0.21549161  0.95492598    -0.26700
C810        C  0.53278732  0.22002352  0.95335624    -0.14800
C811        C  0.54951546  0.25958658  0.95180605     0.35900
C812        C  0.52341240  0.29328122  0.95158045    -0.26100
C813        C  0.48076377  0.28878514  0.95338063    -0.15400
C814        C  0.46383338  0.24940417  0.95507820     0.37000
N815        N  0.42017969  0.24386795  0.95668603    -0.89600
H816        H  0.47698824  0.18530545  0.95616806     0.18100
H817        H  0.53673761  0.32334889  0.95029392     0.18100
N818        N  0.59273548  0.26665160  0.95006719    -0.88700
H819        H  0.41289519  0.21306407  0.95814883     0.35400
H820        H  0.40711601  0.25380085  0.94262083     0.40500
H821        H  0.60389798  0.25063898  0.93718413     0.40200
H822        H  0.60709518  0.25609287  0.96365924     0.35000
C823        C  0.66260022  0.63453386  0.10812923    -0.26700
C824        C  0.62953813  0.61070107  0.10122113    -0.14800
C825        C  0.60549629  0.58984985  0.11625783     0.35900
C826        C  0.61414103  0.59441863  0.13756317    -0.26100
C827        C  0.64624937  0.61949008  0.14451029    -0.15400
C828        C  0.67146322  0.63891914  0.12951957     0.37000
N829        N  0.70555916  0.66355882  0.13596735    -0.89600
H830        H  0.68156163  0.65023405  0.09676356     0.18100
H831        H  0.59453711  0.57917643  0.14880933     0.18100
N832        N  0.57120345  0.56503622  0.11056791    -0.88700
H833        H  0.72011915  0.67663775  0.12301582     0.35400
H834        H  0.72706781  0.64426989  0.14299365     0.40500
H835        H  0.58158972  0.54133443  0.10113512     0.40200
H836        H  0.55018356  0.58279057  0.10220703     0.35000
C837        C  0.48029799  0.51287792  0.98008032    -0.26700
C838        C  0.47946679  0.47227061  0.98686076    -0.14800
C839        C  0.50479663  0.46046050  0.00387408     0.35900
C840        C  0.53002591  0.48923139  0.01348608    -0.26100
C841        C  0.53071392  0.52979221  0.00666992    -0.15400
C842        C  0.50523204  0.54163956  0.98977418     0.37000
N843        N  0.50282157  0.58279003  0.98247637    -0.89600
H844        H  0.46103066  0.52266051  0.96718485     0.18100
H845        H  0.54937584  0.47968164  0.02639916     0.18100
N846        N  0.50604961  0.41963378  0.01168256    -0.88700
H847        H  0.53134429  0.59149111  0.97661618     0.35400
H848        H  0.49488604  0.60149629  0.99505974     0.40500
H849        H  0.51446010  0.40026735  0.99950898     0.40200
H850        H  0.47687561  0.41173928  0.01712127     0.35000
C851        C  0.40671309  0.91069271  0.11493092    -0.26700
C852        C  0.38417350  0.88610339  0.10119619    -0.14800
C853        C  0.35637073  0.85729638  0.10958141     0.35900
C854        C  0.35361320  0.85224343  0.13135953    -0.26100
C855        C  0.37748400  0.87560139  0.14503993    -0.15400
C856        C  0.40370474  0.90565476  0.13668922     0.37000
N857        N  0.42771502  0.93088435  0.15016953    -0.89600
H858        H  0.42777594  0.93323129  0.10878377     0.18100
H859        H  0.33318763  0.82928395  0.13764883     0.18100
N860        N  0.33126950  0.83294701  0.09604178    -0.88700
H861        H  0.42000574  0.96116537  0.14711079     0.35400
H862        H  0.45863476  0.92685756  0.14636111     0.40500
H863        H  0.31078828  0.85250773  0.08843210     0.40200
H864        H  0.31338820  0.81259191  0.10471573     0.35000
C865        C  0.47772241  0.01645378  0.01043179    -0.26700
C866        C  0.48264052  0.97479104  0.00675113    -0.14800
C867        C  0.51293881  0.96172089  0.99244963     0.35900
C868        C  0.53732222  0.99066376  0.98206431    -0.26100
C869        C  0.53234181  0.03236148  0.98568759    -0.15400
C870        C  0.50177307  0.04543225  0.99986259     0.37000
N871        N  0.49458347  0.08801376  0.00319573    -0.89600
H872        H  0.45427706  0.02653392  0.02123866     0.18100
H873        H  0.56070220  0.98052509  0.97123709     0.18100
N874        N  0.51928182  0.91914580  0.98868740    -0.88700
H875        H  0.47154461  0.09236054  0.01434140     0.35400
H876        H  0.48344590  0.10023551  0.98917376     0.40500
H877        H  0.53008969  0.90613176  0.00258654     0.40200
H878        H  0.54222423  0.91477469  0.97749476     0.35000
C879        C  0.52324924  0.79141119  0.03962554    -0.26700
C880        C  0.48046482  0.78729136  0.03834149    -0.14800
C881        C  0.46321660  0.74802186  0.03707993     0.35900
C882        C  0.48918395  0.71392076  0.03708810    -0.26100
C883        C  0.53207317  0.71802529  0.03802160    -0.15400
C884        C  0.54913420  0.75754379  0.03910332     0.37000
N885        N  0.59248960  0.76453367  0.03960720    -0.89600
H886        H  0.53689929  0.82137088  0.04052034     0.18100
H887        H  0.47573396  0.68388722  0.03619347     0.18100
N888        N  0.41948509  0.74275917  0.03590373    -0.88700
H889        H  0.60540029  0.75337016  0.02581995     0.35400
H890        H  0.60496146  0.74916545  0.05246278     0.40500
H891        H  0.40704821  0.75255354  0.05008334     0.40200
H892        H  0.41194562  0.71202208  0.03453222     0.35000
C893        C  0.78825199  0.60038019  0.00906282    -0.26700
C894        C  0.79001774  0.60131632  0.98715153    -0.14800
C895        C  0.75334589  0.60119823  0.97542529     0.35900
C896        C  0.71549144  0.60090588  0.98594870    -0.26100
C897        C  0.71376747  0.60027321  0.00786361    -0.15400
C898        C  0.75060556  0.59957710  0.01951348     0.37000
N899        N  0.75072033  0.60014464  0.04192349    -0.89600
H900        H  0.81636340  0.60067445  0.01813016     0.18100
H901        H  0.68719565  0.60175316  0.97704723     0.18100
N902        N  0.75466633  0.60286073  0.95295665    -0.88700
H903        H  0.73594068  0.57403100  0.04741670     0.35400
H904        H  0.73437441  0.62563840  0.04692188     0.40500
H905        H  0.76751216  0.63080375  0.94867016     0.40200
H906        H  0.72501916  0.60240703  0.94673274     0.35000
C907        C  0.26194676  0.90343179  0.02105307    -0.26700
C908        C  0.29656953  0.90106491  0.00811801    -0.14800
C909        C  0.29148605  0.89808121  0.98627011     0.35900
C910        C  0.25162740  0.89656516  0.97786307    -0.26100
C911        C  0.21701519  0.89663555  0.99094284    -0.15400
C912        C  0.22238825  0.90036640  0.01277865     0.37000
N913        N  0.18834395  0.90142617  0.02692552    -0.89600
H914        H  0.26569206  0.90582263  0.03785088     0.18100
H915        H  0.24756409  0.89410104  0.96108837     0.18100
N916        N  0.32671008  0.89649725  0.97277357    -0.88700
H917        H  0.17277320  0.87377172  0.02612007     0.35400
H918        H  0.16852211  0.92479687  0.02229061     0.40500
H919        H  0.34222839  0.92414781  0.97413772     0.40200
H920        H  0.31763701  0.89409367  0.95713665     0.35000
C921        C  0.04347036  0.74683874  0.96628105    -0.26700
C922        C  0.02557720  0.78543851  0.96460242    -0.14800
C923        C  0.98264180  0.78877427  0.96192156     0.35900
C924        C  0.95873852  0.75332604  0.96110181    -0.26100
C925        C  0.97677515  0.71467909  0.96252740    -0.15400
C926        C  0.01978320  0.71142575  0.96487322     0.37000
N927        N  0.03944981  0.67235885  0.96587243    -0.89600
H928        H  0.07641705  0.74417950  0.96807364     0.18100
H929        H  0.92582513  0.75593018  0.95910503     0.18100
N930        N  0.96339100  0.82792577  0.96000124    -0.88700
H931        H  0.07073301  0.67549216  0.96910473     0.35400
H932        H  0.03769467  0.65961703  0.95094944     0.40500
H933        H  0.96679251  0.84276478  0.97432109     0.40200
H934        H  0.93184532  0.82485747  0.95749760     0.35000
C935        C  0.86988862  0.09690122  0.13306183    -0.26700
C936        C  0.86094140  0.13546234  0.14120881    -0.14800
C937        C  0.85813516  0.16901113  0.12744399     0.35900
C938        C  0.86566226  0.16347248  0.10604409    -0.26100
C939        C  0.87612836  0.12524426  0.09796311    -0.15400
C940        C  0.87807190  0.09144591  0.11166289     0.37000
N941        N  0.88899357  0.05189659  0.10400948    -0.89600
H942        H  0.87238090  0.07111828  0.14358125     0.18100
H943        H  0.86384120  0.18949160  0.09564740     0.18100
N944        N  0.84827302  0.20874414  0.13521465    -0.88700
H945        H  0.88679809  0.03013073  0.11592296     0.35400
H946        H  0.91993109  0.05293051  0.09973136     0.40500
H947        H  0.81817866  0.20769797  0.14085501     0.40200
H948        H  0.84856706  0.23023404  0.12312795     0.35000
C949        C  0.75665241  0.11597763  0.01600238    -0.26700
C950        C  0.79213548  0.10901350  0.00416924    -0.14800
C951        C  0.78864272  0.10071181  0.98260114     0.35900
C952        C  0.74983577  0.10005178  0.97326288    -0.26100
C953        C  0.71446241  0.10866926  0.98492137    -0.15400
C954        C  0.71775997  0.11637100  0.00653002     0.37000
N955        N  0.68164528  0.12426863  0.01875303    -0.89600
H956        H  0.75942901  0.12209565  0.03258676     0.18100
H957        H  0.74738888  0.09391419  0.95666569     0.18100
N958        N  0.82382074  0.09212577  0.96994356    -0.88700
H959        H  0.68942273  0.12934130  0.03437810     0.35400
H960        H  0.66357818  0.09800252  0.01852890     0.40500
H961        H  0.83954341  0.06758205  0.97660477     0.40200
H962        H  0.84310844  0.11746465  0.96998495     0.35000
C963        C  0.01857352  0.96836245  0.01170061    -0.26700
C964        C  0.03404662  0.97528119  0.99147073    -0.14800
C965        C  0.02206594  0.01067481  0.98047523     0.35900
C966        C  0.99476581  0.03796637  0.98985298    -0.26100
C967        C  0.97875802  0.03075797  0.00989751    -0.15400
C968        C  0.99062627  0.99538749  0.02093567     0.37000
N969        N  0.97381783  0.98654469  0.04124641    -0.89600
H970        H  0.02731925  0.94108287  0.02013599     0.18100
H971        H  0.98603260  0.06521422  0.98138697     0.18100
N972        N  0.03714740  0.01871665  0.95973614    -0.88700
H973        H  0.98638806  0.95976880  0.04734670     0.35400
H974        H  0.94245497  0.98105385  0.03930385     0.40500
H975        H  0.06843685  0.02520307  0.96100015     0.40200
H976        H  0.02328372  0.04463502  0.95338349     0.35000
C977        C  0.15828287  0.34633169  0.10453815    -0.26700
C978        C  0.14074387  0.38274753  0.09724933    -0.14800
C979        C  0.13067923  0.41335605  0.11174993     0.35900
C980        C  0.13488936  0.40543664  0.13325696    -0.26100
C981        C  0.15020946  0.36813059  0.14059463    -0.15400
C982        C  0.16301421  0.33857910  0.12603745     0.37000
N983        N  0.17918002  0.30020560  0.13304258    -0.89600
H984        H  0.16661930  0.32293238  0.09346450     0.18100
H985        H  0.12588128  0.42850357  0.14438182     0.18100
N986        N  0.11597808  0.45221353  0.10465179    -0.88700
H987        H  0.18817291  0.28245497  0.12032141     0.35400
H988        H  0.15535403  0.28445587  0.14042766     0.40500
H989        H  0.13978395  0.46604287  0.09629078     0.40200
H990        H  0.10968289  0.47114302  0.11734144     0.35000
C991        C  0.27888230  0.35860123  0.99111172    -0.26700
C992        C  0.29514923  0.39539208  0.98363055    -0.14800
C993        C  0.27272015  0.43157304  0.98662764     0.35900
C994        C  0.23444683  0.43022557  0.99669849    -0.26100
C995        C  0.21802925  0.39332791  0.00387698    -0.15400
C996        C  0.24093028  0.35721371  0.00143286     0.37000
N997        N  0.22612384  0.31939415  0.00989214    -0.89600
H998        H  0.29604955  0.33070346  0.98912688     0.18100
H999        H  0.21735266  0.45815999  0.99874151     0.18100
N1000       N  0.28863953  0.46979567  0.97959256    -0.88700
H1001       H  0.22544422  0.32221248  0.02617704     0.35400
H1002       H  0.24651817  0.29574608  0.00662388     0.40500
H1003       H  0.29103205  0.48895232  0.99252710     0.40200
H1004       H  0.26748816  0.48259314  0.96917253     0.35000
C1005       C  0.00969007  0.49895989  0.01718770    -0.26700
C1006       C  0.03136435  0.47115172  0.00484825    -0.14800
C1007       C  0.02420856  0.47028223  0.98304543     0.35900
C1008       C  0.99564545  0.49731581  0.97413285    -0.26100
C1009       C  0.97417862  0.52538667  0.98646451    -0.15400
C1010       C  0.98095894  0.52578199  0.00833900     0.37000
N1011       N  0.95893685  0.55347325  0.02156184    -0.89600
H1012       H  0.01466884  0.49935911  0.03394350     0.18100
H1013       H  0.99074824  0.49694207  0.95737306     0.18100
N1014       N  0.04630203  0.44243627  0.96995388    -0.88700
H1015       H  0.96884220  0.55098079  0.03707378     0.35400
H1016       H  0.92812096  0.54467104  0.02146745     0.40500
H1017       H  0.07721153  0.45090636  0.97027157     0.40200
H1018       H  0.03675484  0.44508114  0.95439277     0.35000
C1019       C  0.04606442  0.25058761  0.03127521    -0.26700
C1020       C  0.02853105  0.28921193  0.03366307    -0.14800
C1021       C  0.98542780  0.29292389  0.03518915     0.35900
C1022       C  0.96100697  0.25783248  0.03427187    -0.26100
C1023       C  0.97866454  0.21917202  0.03229562    -0.15400
C1024       C  0.02170637  0.21551788  0.03060976     0.37000
N1025       N  0.04060604  0.17636487  0.02809811    -0.89600
H1026       H  0.07908725  0.24767197  0.03003490     0.18100
H1027       H  0.92798792  0.26064628  0.03559267     0.18100
N1028       N  0.96643850  0.33212890  0.03723996    -0.88700
H1029       H  0.07254648  0.17903922  0.02751089     0.35400
H1030       H  0.03140734  0.16498902  0.01358985     0.40500
H1031       H  0.97334309  0.34292216  0.05218040     0.40200
H1032       H  0.93448358  0.32955259  0.03664634     0.35000
C1033       C  0.60161077  0.09615894  0.87636267    -0.26700
C1034       C  0.62939700  0.11501941  0.89000434    -0.14800
C1035       C  0.66302105  0.13657160  0.88150528     0.35900
C1036       C  0.66671792  0.14097286  0.85975779    -0.26100
C1037       C  0.63760674  0.12401507  0.84621258    -0.15400
C1038       C  0.60551254  0.10032899  0.85462029     0.37000
N1039       N  0.57679792  0.08037362  0.84116603    -0.89600
H1040       H  0.57606657  0.07882947  0.88255747     0.18100
H1041       H  0.69192870  0.15872435  0.85350959     0.18100
N1042       N  0.69339091  0.15433603  0.89482691    -0.88700
H1043       H  0.54735311  0.09060966  0.84491025     0.35400
H1044       H  0.57811062  0.04919846  0.84428836     0.40500
H1045       H  0.69434888  0.18554192  0.89175344     0.40200
H1046       H  0.72191132  0.14202327  0.89087706     0.35000
C1047       C  0.34672526  0.37774927  0.85889917    -0.26700
C1048       C  0.37815549  0.39238414  0.84591226    -0.14800
C1049       C  0.41145373  0.41356994  0.85493351     0.35900
C1050       C  0.41390708  0.41694590  0.87682050    -0.26100
C1051       C  0.38376898  0.39984347  0.88984322    -0.15400
C1052       C  0.34902984  0.38138695  0.88072954     0.37000
N1053       N  0.31651898  0.36575061  0.89364475    -0.89600
H1054       H  0.32075958  0.36215441  0.85205086     0.18100
H1055       H  0.44029806  0.43169434  0.88375371     0.18100
N1056       N  0.44301689  0.43088014  0.84195989    -0.88700
H1057       H  0.29365925  0.35237173  0.88449800     0.35400
H1058       H  0.30288999  0.39046281  0.90114917     0.40500
H1059       H  0.46552189  0.44484007  0.85109919     0.40200
H1060       H  0.42950790  0.45388850  0.83296511     0.35000
C1061       C  0.47166289  0.24348871  0.78713216    -0.26700
C1062       C  0.47691608  0.28410374  0.78091194    -0.14800
C1063       C  0.51631383  0.29744815  0.77451070     0.35900
C1064       C  0.54922349  0.27015516  0.77471507    -0.26100
C1065       C  0.54361499  0.22948927  0.78067489    -0.15400
C1066       C  0.50448681  0.21609008  0.78688393     0.37000
N1067       N  0.49818339  0.17496419  0.79355309    -0.89600
H1068       H  0.44178769  0.23275912  0.79213467     0.18100
H1069       H  0.57934350  0.28072656  0.77000108     0.18100
N1070       N  0.52419392  0.33852940  0.76822562    -0.88700
H1071       H  0.47557482  0.16217037  0.78402994     0.35400
H1072       H  0.48710942  0.17538684  0.80889369     0.40500
H1073       H  0.51529289  0.35788767  0.78032031     0.40200
H1074       H  0.50687331  0.34504776  0.75487203     0.35000
C1075       C  0.16478743  0.15637093  0.63256415    -0.26700
C1076       C  0.14891235  0.12704798  0.64637191    -0.14800
C1077       C  0.12834913  0.09288575  0.63793317     0.35900
C1078       C  0.12284179  0.08979363  0.61630784    -0.26100
C1079       C  0.13746169  0.11976261  0.60253273    -0.15400
C1080       C  0.15948017  0.15316964  0.61079106     0.37000
N1081       N  0.17612944  0.18397195  0.59721822    -0.89600
H1082       H  0.18082438  0.18246826  0.63880867     0.18100
H1083       H  0.10629379  0.06381259  0.61027695     0.18100
N1084       N  0.11171848  0.06120886  0.65080536    -0.88700
H1085       H  0.19385777  0.20463243  0.60570563     0.35400
H1086       H  0.15149391  0.20053035  0.59110752     0.40500
H1087       H  0.09020011  0.07376095  0.66102443     0.40200
H1088       H  0.13554715  0.04790259  0.65936964     0.35000
C1089       C  0.29825131  0.26732756  0.73552465    -0.26700
C1090       C  0.29359036  0.27769769  0.75670004    -0.14800
C1091       C  0.26209864  0.25881659  0.76845128     0.35900
C1092       C  0.23564550  0.23103783  0.75864775    -0.26100
C1093       C  0.23995977  0.22098701  0.73741728    -0.15400
C1094       C  0.27185765  0.23936633  0.72573395     0.37000
N1095       N  0.27726712  0.23009470  0.70395755    -0.89600
H1096       H  0.32238112  0.28150748  0.72641795     0.18100
H1097       H  0.21136364  0.21711042  0.76775141     0.18100
N1098       N  0.25686893  0.26774850  0.79028472    -0.88700
H1099       H  0.30332169  0.24460266  0.69800692     0.35400
H1100       H  0.25223377  0.24233386  0.69586259     0.40500
H1101       H  0.28237706  0.25604515  0.79821803     0.40200
H1102       H  0.23132501  0.25257488  0.79634965     0.35000
C1103       C  0.90454240  0.40469651  0.63819723    -0.26700
C1104       C  0.87357286  0.37907613  0.64592532    -0.14800
C1105       C  0.84671713  0.36026244  0.63159954     0.35900
C1106       C  0.85254558  0.36591256  0.60999129    -0.26100
C1107       C  0.88484237  0.39001223  0.60226183    -0.15400
C1108       C  0.91047636  0.41020538  0.61664088     0.37000
N1109       N  0.94369904  0.43511883  0.60951454    -0.89600
H1110       H  0.92531987  0.41964559  0.64892491     0.18100
H1111       H  0.83232453  0.35035029  0.59921870     0.18100
N1112       N  0.81423811  0.33445155  0.63880638    -0.88700
H1113       H  0.97098229  0.42318065  0.61556598     0.35400
H1114       H  0.93972447  0.46423060  0.61565671     0.40500
H1115       H  0.81845873  0.30565900  0.63232548     0.40200
H1116       H  0.78650817  0.34613481  0.63316196     0.35000
C1117       C  0.75979101  0.25904781  0.72615044    -0.26700
C1118       C  0.79252532  0.27323835  0.73834982    -0.14800
C1119       C  0.79628963  0.25999558  0.75933108     0.35900
C1120       C  0.76629096  0.23405801  0.76772916    -0.26100
C1121       C  0.73314908  0.22054491  0.75557911    -0.15400
C1122       C  0.72999039  0.23306056  0.73447845     0.37000
N1123       N  0.69623069  0.22016603  0.72162509    -0.89600
H1124       H  0.75696935  0.26874245  0.70999589     0.18100
H1125       H  0.76891785  0.22423273  0.78387449     0.18100
N1126       N  0.83004821  0.27305348  0.77212601    -0.88700
H1127       H  0.69960804  0.23080416  0.70628019     0.35400
H1128       H  0.66968974  0.23385100  0.72747079     0.40500
H1129       H  0.85659935  0.25944856  0.76624108     0.40200
H1130       H  0.82677131  0.26229767  0.78745448     0.35000
C1131       C  0.00951888  0.28447644  0.72180288    -0.26700
C1132       C  0.97444619  0.27190875  0.71086658    -0.14800
C1133       C  0.97465192  0.23382259  0.70069899     0.35900
C1134       C  0.01024401  0.20977558  0.70139756    -0.26100
C1135       C  0.04531165  0.22257370  0.71225584    -0.15400
C1136       C  0.04476008  0.26025445  0.72261620     0.37000
N1137       N  0.07961730  0.27387212  0.73429341    -0.89600
H1138       H  0.00979317  0.31344953  0.72977613     0.18100
H1139       H  0.01060777  0.18086856  0.69336839     0.18100
N1140       N  0.93890358  0.21948257  0.68981176    -0.88700
H1141       H  0.07039349  0.27836369  0.74977730     0.35400
H1142       H  0.08885919  0.30191592  0.72817411     0.40500
H1143       H  0.91617605  0.21396042  0.70100890     0.40200
H1144       H  0.94480428  0.19162056  0.68263084     0.35000
C1145       C  0.40662099  0.60914965  0.63615881    -0.26700
C1146       C  0.37411885  0.63405609  0.64273639    -0.14800
C1147       C  0.34872610  0.65270635  0.62757164     0.35900
C1148       C  0.35735400  0.64709078  0.60626755    -0.26100
C1149       C  0.39052399  0.62306151  0.59972647    -0.15400
C1150       C  0.41541197  0.60375143  0.61487750     0.37000
N1151       N  0.45015152  0.57965721  0.60873572    -0.89600
H1152       H  0.42631431  0.59485844  0.64769702     0.18100
H1153       H  0.33802972  0.66174623  0.59468350     0.18100
N1154       N  0.31472246  0.67774891  0.63374139    -0.88700
H1155       H  0.46444166  0.56672214  0.62181478     0.35400
H1156       H  0.47165623  0.59927595  0.60197222     0.40500
H1157       H  0.29320327  0.65888305  0.64104149     0.40200
H1158       H  0.30011095  0.69022945  0.62064267     0.35000
C1159       C  0.40271863  0.49204226  0.75035863    -0.26700
C1160       C  0.36619235  0.47018558  0.75298838    -0.14800
C1161       C  0.32885363  0.48731711  0.74593439     0.35900
C1162       C  0.32902631  0.52635985  0.73677438    -0.26100
C1163       C  0.36569212  0.54841884  0.73452884    -0.15400
C1164       C  0.40284985  0.53074112  0.74133729     0.37000
N1165       N  0.44109267  0.55173447  0.73900775    -0.89600
H1166       H  0.43162711  0.47927397  0.75559480     0.18100
H1167       H  0.30044450  0.53960870  0.73141365     0.18100
N1168       N  0.29109667  0.46507159  0.74790115    -0.88700
H1169       H  0.46059339  0.53380385  0.72992193     0.35400
H1170       H  0.45429327  0.55481926  0.75382283     0.40500
H1171       H  0.29333416  0.43945877  0.73835949     0.40200
H1172       H  0.26650369  0.48218906  0.74214447     0.35000
C1173       C  0.60609654  0.89431229  0.63281773    -0.26700
C1174       C  0.64116443  0.87427143  0.64053434    -0.14800
C1175       C  0.67107857  0.86039074  0.62624682     0.35900
C1176       C  0.66455217  0.86574839  0.60468689    -0.26100
C1177       C  0.62929658  0.88529198  0.59706789    -0.15400
C1178       C  0.59981680  0.89997522  0.61126881     0.37000
N1179       N  0.56312444  0.91954603  0.60380512    -0.89600
H1180       H  0.58298989  0.90506726  0.64363320     0.18100
H1181       H  0.68725752  0.85466831  0.59372642     0.18100
N1182       N  0.70756020  0.84026000  0.63352532    -0.88700
H1183       H  0.54483510  0.92890547  0.61631241     0.35400
H1184       H  0.54605401  0.89791316  0.59562045     0.40500
H1185       H  0.72541257  0.86191072  0.64124249     0.40200
H1186       H  0.72516148  0.83007097  0.62093146     0.35000
C1187       C  0.64899660  0.03876612  0.73238689    -0.26700
C1188       C  0.65027725  0.04057538  0.75428913    -0.14800
C1189       C  0.65199415  0.00413325  0.76603019     0.35900
C1190       C  0.65273422  0.96686980  0.75567761    -0.26100
C1191       C  0.65232941  0.96500967  0.73377429    -0.15400
C1192       C  0.65010880  0.00130218  0.72195923     0.37000
N1193       N  0.64786555  0.99996236  0.69950908    -0.89600
H1194       H  0.64710491  0.06670155  0.72339607     0.18100
H1195       H  0.65373771  0.93910131  0.76484083     0.18100
N1196       N  0.65135479  0.00390744  0.78844196    -0.88700
H1197       H  0.64643722  0.02933541  0.69323640     0.35400
H1198       H  0.62030760  0.98572041  0.69552440     0.40500
H1199       H  0.62535683  0.01972745  0.79347780     0.40200
H1200       H  0.67756051  0.01866123  0.79392601     0.35000
C1201       C  0.50442328  0.80112958  0.70488107    -0.26700
C1202       C  0.54307177  0.78286153  0.70710797    -0.14800
C1203       C  0.54567190  0.74051690  0.71010340     0.35900
C1204       C  0.50982073  0.71706040  0.71025449    -0.26100
C1205       C  0.47121401  0.73507959  0.70733150    -0.15400
C1206       C  0.46839474  0.77766940  0.70493352     0.37000
N1207       N  0.42904921  0.79698010  0.70276285    -0.89600
H1208       H  0.50234585  0.83375225  0.70281414     0.18100
H1209       H  0.51230654  0.68446834  0.71236188     0.18100
N1210       N  0.58459666  0.72125963  0.71335761    -0.88700
H1211       H  0.43243140  0.82836784  0.70091451     0.35400
H1212       H  0.41308137  0.79250750  0.71677046     0.40500
H1213       H  0.58854194  0.69935197  0.70174748     0.40200
H1214       H  0.58384673  0.70640614  0.72784317     0.35000
C1215       C  0.16043254  0.84638990  0.87013819    -0.26700
C1216       C  0.14004300  0.87328297  0.85659216    -0.14800
C1217       C  0.11553120  0.90452736  0.86514794     0.35900
C1218       C  0.11072196  0.90698464  0.88693945    -0.26100
C1219       C  0.12946043  0.87880789  0.90045663    -0.15400
C1220       C  0.15519452  0.84847887  0.89181080     0.37000
N1221       N  0.17610881  0.81898135  0.90444650    -0.89600
H1222       H  0.17950572  0.82243837  0.86382251     0.18100
H1223       H  0.09137495  0.93061597  0.89334618     0.18100
N1224       N  0.09505213  0.93330559  0.85175382    -0.88700
H1225       H  0.15441810  0.80121285  0.91229284     0.35400
H1226       H  0.19457170  0.83411495  0.91528357     0.40500
H1227       H  0.11766243  0.95071225  0.84434937     0.40200
H1228       H  0.07732891  0.95348602  0.86051694     0.35000
C1229       C  0.11161888  0.98258559  0.75752644    -0.26700
C1230       C  0.14848102  0.96559021  0.76488762    -0.14800
C1231       C  0.18553286  0.98718039  0.76177199     0.35900
C1232       C  0.18486570  0.02442168  0.75083542    -0.26100
C1233       C  0.14797410  0.04127132  0.74347631    -0.15400
C1234       C  0.11090392  0.01999110  0.74685185     0.37000
N1235       N  0.07272248  0.03584665  0.73902813    -0.89600
H1236       H  0.08307710  0.96632292  0.75984560     0.18100
H1237       H  0.21332398  0.04071925  0.74831217     0.18100
N1238       N  0.22376308  0.97124105  0.76946194    -0.88700
H1239       H  0.04828322  0.01693110  0.74324083     0.35400
H1240       H  0.07421091  0.03549027  0.72269373     0.40500
H1241       H  0.22268341  0.97223672  0.78579992     0.40200
H1242       H  0.24818932  0.98991289  0.76497732     0.35000
C1243       C  0.21886667  0.76948029  0.73967930    -0.26700
C1244       C  0.22987774  0.78514006  0.75932529    -0.14800
C1245       C  0.26841549  0.77447856  0.76784065     0.35900
C1246       C  0.29483993  0.74878252  0.75669813    -0.26100
C1247       C  0.28362130  0.73273395  0.73719159    -0.15400
C1248       C  0.24507873  0.74326694  0.72867700     0.37000
N1249       N  0.23204108  0.72712843  0.70900110    -0.89600
H1250       H  0.18932858  0.77697028  0.73290237     0.18100
H1251       H  0.32429875  0.74114699  0.76352795     0.18100
N1252       N  0.28080842  0.78906411  0.78794215    -0.88700
H1253       H  0.22582982  0.75146102  0.69892058     0.35400
H1254       H  0.20470624  0.71116680  0.71141793     0.40500
H1255       H  0.30840811  0.80487492  0.78613945     0.40200
H1256       H  0.28634764  0.76392946  0.79759939     0.35000
C1257       C  0.85500333  0.65930872  0.86362651    -0.26700
C1258       C  0.86984763  0.62858506  0.85050676    -0.14800
C1259       C  0.88877771  0.59406002  0.85966526     0.35900
C1260       C  0.89296884  0.59150507  0.88138244    -0.26100
C1261       C  0.87943880  0.62284719  0.89448820    -0.15400
C1262       C  0.85989011  0.65712569  0.88533743     0.37000
N1263       N  0.84495703  0.69046066  0.89747862    -0.89600
H1264       H  0.84055021  0.68603698  0.85694159     0.18100
H1265       H  0.90781371  0.56493268  0.88799789     0.18100
N1266       N  0.90411945  0.56098141  0.84747073    -0.88700
H1267       H  0.86951598  0.70374717  0.90536755     0.35400
H1268       H  0.82343283  0.67952820  0.90827726     0.40500
H1269       H  0.92820089  0.57135323  0.83811756     0.40200
H1270       H  0.88040603  0.54997497  0.83802005     0.35000
C1271       C  0.83094073  0.51543668  0.75634795    -0.26700
C1272       C  0.86735654  0.53823007  0.75741547    -0.14800
C1273       C  0.90399676  0.52120618  0.74960421     0.35900
C1274       C  0.90354223  0.48244017  0.74079087    -0.26100
C1275       C  0.86713780  0.45999383  0.73927137    -0.15400
C1276       C  0.83047157  0.47663166  0.74724038     0.37000
N1277       N  0.79283024  0.45428224  0.74628556    -0.89600
H1278       H  0.80260204  0.52785491  0.76244693     0.18100
H1279       H  0.93202934  0.47014299  0.73479700     0.18100
N1280       N  0.94201398  0.54292279  0.75066989    -0.88700
H1281       H  0.77153339  0.47164758  0.73789588     0.35400
H1282       H  0.78178066  0.45068489  0.76153537     0.40500
H1283       H  0.95334657  0.54622809  0.73545954     0.40200
H1284       H  0.96291467  0.52533585  0.75920499     0.35000
C1285       C  0.79953188  0.74447009  0.73662992    -0.26700
C1286       C  0.78650974  0.72301450  0.75451453    -0.14800
C1287       C  0.74617339  0.72918682  0.76187142     0.35900
C1288       C  0.72006246  0.75646364  0.75143278    -0.26100
C1289       C  0.73309826  0.77810521  0.73362431    -0.15400
C1290       C  0.77329790  0.77174462  0.72615242     0.37000
N1291       N  0.78781085  0.79291442  0.70799535    -0.89600
H1292       H  0.83038871  0.74027034  0.73072732     0.18100
H1293       H  0.68922559  0.76059480  0.75738187     0.18100
N1294       N  0.73140704  0.70798671  0.77997964    -0.88700
H1295       H  0.79661383  0.77135287  0.69691129     0.35400
H1296       H  0.81385228  0.80948881  0.71222808     0.40500
H1297       H  0.70559017  0.69118752  0.77562175     0.40200
H1298       H  0.72222407  0.72949519  0.79101062     0.35000
C1299       C  0.04799123  0.73205369  0.79091555    -0.26700
C1300       C  0.04246877  0.77436279  0.78978892    -0.14800
C1301       C  0.00231914  0.79022911  0.78802118     0.35900
C1302       C  0.96882739  0.76355000  0.78729077    -0.26100
C1303       C  0.97433080  0.72135554  0.78814774    -0.15400
C1304       C  0.01434604  0.70544583  0.78988836     0.37000
N1305       N  0.02097158  0.66247076  0.79095027    -0.89600
H1306       H  0.07861280  0.71950568  0.79233624     0.18100
H1307       H  0.93810478  0.77588337  0.78596248     0.18100
N1308       N  0.99549532  0.83335644  0.78726253    -0.88700
H1309       H  0.03616682  0.65590912  0.80497204     0.35400
H1310       H  0.04033613  0.65437466  0.77861894     0.40500
H1311       H  0.00412304  0.84518985  0.80175795     0.40200
H1312       H  0.96428441  0.83984355  0.78543436     0.35000
loop_ 
_geom_bond_atom_site_label_1 
_geom_bond_atom_site_label_2 
_geom_bond_distance 
_geom_bond_site_symmetry_2 
_ccdc_geom_bond_type 
In1           O3   2.251       .  S
In1           O4   2.245       .  S
In1          O12   2.258       .  S
In1           O6   2.227       .  S
In1           O8   2.255       .  S
In1           O9   2.259       .  S
In1          O10   2.227       .  S
In1          O13   2.230       .  S
C2            O8   1.261       .  A
C2           O10   1.260       .  A
C2         C1303   1.477       .  S
O3           C11   1.262       .  A
O4           C11   1.262       .  A
C5           O12   1.262       .  A
C5            O6   1.260       .  A
C5         C1272   1.482       .  S
C7            O9   1.260       .  A
C7           O13   1.255       .  A
C7         C1258   1.482       .  S
C11        C1286   1.488       .  S
In14         O16   2.248       .  S
In14         O17   2.251       .  S
In14         O25   2.255       .  S
In14         O19   2.241       .  S
In14         O21   2.242       .  S
In14         O22   2.261       .  S
In14         O23   2.255       .  S
In14         O26   2.239       .  S
C15          O21   1.260       .  A
C15          O23   1.260       .  A
C15        C1300   1.482       .  S
O16          C24   1.262       .  A
O17          C24   1.263       .  A
C18          O25   1.261       .  A
C18          O19   1.261       .  A
C18        C1230   1.488       .  S
C20          O22   1.261       .  A
C20          O26   1.256       .  A
C20        C1216   1.483       .  S
C24        C1244   1.489       .  S
In27         O29   2.231       .  S
In27         O30   2.253       .  S
In27         O38   2.254       .  S
In27         O32   2.246       .  S
In27         O34   2.242       .  S
In27         O35   2.269       .  S
In27         O36   2.227       .  S
In27         O39   2.235       .  S
C28          O34   1.262       .  A
C28          O36   1.261       .  A
C28        C1202   1.475       .  S
O29          C37   1.260       .  A
O30          C37   1.264       .  A
C31          O38   1.258       .  A
C31          O32   1.258       .  A
C31        C1191   1.475       .  S
C33          O35   1.264       .  A
C33          O39   1.259       .  A
C33        C1289   1.488       .  S
C37        C1174   1.485       .  S
In40         O42   2.233       .  S
In40         O43   2.251       .  S
In40         O51   2.264       .  S
In40         O45   2.215       .  S
In40         O47   2.245       .  S
In40         O48   2.253       .  S
In40         O49   2.245       .  S
In40         O52   2.240       .  S
C41          O47   1.259       .  A
C41          O49   1.260       .  A
C41        C1205   1.478       .  S
O42          C50   1.258       .  A
O43          C50   1.260       .  A
C44          O51   1.263       .  A
C44          O45   1.258       .  A
C44        C1163   1.481       .  S
C46          O48   1.262       .  A
C46          O52   1.260       .  A
C46        C1247   1.487       .  S
C50        C1146   1.481       .  S
In53         O55   2.240       .  S
In53         O56   2.213       .  S
In53         O64   2.257       .  S
In53         O58   2.224       .  S
In53         O60   2.236       .  S
In53         O61   2.252       .  S
In53         O62   2.238       .  S
In53         O65   2.242       .  S
C54          O60   1.261       .  A
C54          O62   1.258       .  A
C54        C1132   1.479       .  S
O55          C63   1.261       .  A
O56          C63   1.262       .  A
C57          O64   1.261       .  A
C57          O58   1.260       .  A
C57        C1275   1.479       .  S
C59          O61   1.260       .  A
C59          O65   1.260       .  A
C59        C1104   1.485       .  S
C63        C1118   1.477       .  S
In66         O68   2.236       .  S
In66         O69   2.255       .  S
In66         O77   2.254       .  S
In66         O71   2.244       .  S
In66         O73   2.253       .  S
In66         O74   2.249       .  S
In66         O75   2.247       .  S
In66         O78   2.259       .  S
C67          O73   1.259       .  A
C67          O75   1.256       .  A
C67        C1135   1.477       .  S
O68          C76   1.263       .  A
O69          C76   1.265       .  A
C70          O77   1.263       .  A
C70          O71   1.262       .  A
C70        C1233   1.485       .  S
C72          O74   1.256       .  A
C72          O78   1.260       .  A
C72        C1076   1.487       .  S
C76        C1093   1.490       .  S
In79         O81   2.246       .  S
In79         O82   2.247       .  S
In79         O90   2.257       .  S
In79         O84   2.228       .  S
In79         O86   2.240       .  S
In79         O87   2.245       .  S
In79         O88   2.233       .  S
In79         O91   2.252       .  S
C80          O86   1.261       .  A
C80          O88   1.262       .  A
C80        C1062   1.478       .  S
O81          C89   1.258       .  A
O82          C89   1.261       .  A
C83          O90   1.260       .  A
C83          O84   1.258       .  A
C83        C1160   1.479       .  S
C85          O87   1.261       .  A
C85          O91   1.262       .  A
C85        C1090   1.490       .  S
C89        C1048   1.482       .  S
In92         O94   2.225       .  S
In92         O95   2.243       .  S
In92        O103   2.235       .  S
In92         O97   2.240       .  S
In92         O99   2.238       .  S
In92        O100   2.233       .  S
In92        O101   2.240       .  S
In92        O104   2.224       .  S
C93          O99   1.261       .  A
C93         O101   1.259       .  A
C93        C1065   1.471       .  S
O94         C102   1.260       .  A
O95         C102   1.263       .  A
C96         O103   1.259       .  A
C96          O97   1.260       .  A
C96        C1188   1.472       .  S
C98         O100   1.262       .  A
C98         O104   1.260       .  A
C98        C1121   1.475       .  S
C102       C1037   1.477       .  S
In105       O107   2.242       .  S
In105       O108   2.255       .  S
In105       O116   2.259       .  S
In105       O110   2.223       .  S
In105       O112   2.237       .  S
In105       O113   2.244       .  S
In105       O114   2.245       .  S
In105       O117   2.233       .  S
C106        O112   1.259       .  A
C106        O114   1.258       .  A
C106       C1020   1.478       .  S
O107        C115   1.257       .  A
O108        C115   1.260       .  A
C109        O116   1.263       .  A
C109        O110   1.259       .  A
C109        C995   1.479       .  S
C111        O113   1.264       .  A
C111        O117   1.261       .  A
C111       C1006   1.482       .  S
C115        C978   1.483       .  S
In118       O120   2.230       .  S
In118       O121   2.243       .  S
In118       O129   2.246       .  S
In118       O123   2.246       .  S
In118       O125   2.242       .  S
In118       O126   2.239       .  S
In118       O127   2.230       .  S
In118       O130   2.229       .  S
C119        O125   1.263       .  A
C119        O127   1.259       .  A
C119       C1023   1.477       .  S
O120        C128   1.261       .  A
O121        C128   1.262       .  A
C122        O129   1.258       .  A
C122        O123   1.258       .  A
C122        C950   1.470       .  S
C124        O126   1.261       .  A
C124        O130   1.261       .  A
C124        C967   1.479       .  S
C128        C939   1.483       .  S
In131       O133   2.242       .  S
In131       O134   2.231       .  S
In131       O142   2.242       .  S
In131       O136   2.243       .  S
In131       O138   2.241       .  S
In131       O139   2.238       .  S
In131       O140   2.237       .  S
In131       O143   2.226       .  S
C132        O138   1.262       .  A
C132        O140   1.258       .  A
C132        C922   1.479       .  S
O133        C141   1.261       .  A
O134        C141   1.261       .  A
C135        O142   1.258       .  A
C135        O136   1.261       .  A
C135        C911   1.475       .  S
C137        O139   1.264       .  A
C137        O143   1.261       .  A
C137       C1219   1.484       .  S
C141        C964   1.482       .  S
In144       O146   2.220       .  S
In144       O147   2.256       .  S
In144       O155   2.247       .  S
In144       O149   2.238       .  S
In144       O151   2.246       .  S
In144       O152   2.247       .  S
In144       O153   2.229       .  S
In144       O156   2.227       .  S
C145        O151   1.261       .  A
C145        O153   1.258       .  A
C145        C925   1.479       .  S
O146        C154   1.259       .  A
O147        C154   1.264       .  A
C148        O155   1.260       .  A
C148        O149   1.259       .  A
C148        C894   1.472       .  S
C150        O152   1.264       .  A
C150        O156   1.258       .  A
C150       C1261   1.484       .  S
C154       C1009   1.485       .  S
In157       O159   2.231       .  S
In157       O160   2.257       .  S
In157       O168   2.248       .  S
In157       O162   2.249       .  S
In157       O164   2.240       .  S
In157       O165   2.255       .  S
In157       O166   2.241       .  S
In157       O169   2.231       .  S
C158        O164   1.262       .  A
C158        O166   1.262       .  A
C158        C880   1.482       .  S
O159        C167   1.258       .  A
O160        C167   1.263       .  A
C161        O168   1.259       .  A
C161        O162   1.259       .  A
C161        C908   1.474       .  S
C163        O165   1.264       .  A
C163        O169   1.260       .  A
C163        C852   1.485       .  S
C167        C866   1.482       .  S
In170       O172   2.224       .  S
In170       O173   2.243       .  S
In170       O181   2.244       .  S
In170       O175   2.241       .  S
In170       O177   2.246       .  S
In170       O178   2.247       .  S
In170       O179   2.246       .  S
In170       O182   2.229       .  S
C171        O177   1.260       .  A
C171        O179   1.260       .  A
C171        C883   1.485       .  S
O172        C180   1.259       .  A
O173        C180   1.263       .  A
C174        O181   1.259       .  A
C174        O175   1.260       .  A
C174        C897   1.472       .  S
C176        O178   1.262       .  A
C176        O182   1.261       .  A
C176        C824   1.484       .  S
C180        C841   1.477       .  S
In183       O185   2.243       .  S
In183       O186   2.257       .  S
In183       O194   2.254       .  S
In183       O188   2.233       .  S
In183       O190   2.239       .  S
In183       O191   2.233       .  S
In183       O192   2.247       .  S
In183       O195   2.244       .  S
C184        O190   1.259       .  A
C184        O192   1.260       .  A
C184        C813   1.479       .  S
O185        C193   1.258       .  A
O186        C193   1.259       .  A
C187        O194   1.261       .  A
C187        O188   1.259       .  A
C187        C992   1.483       .  S
C189        O191   1.261       .  A
C189        O195   1.260       .  A
C189        C838   1.482       .  S
C193       C1051   1.481       .  S
In196       O198   2.238       .  S
In196       O199   2.253       .  S
In196       O207   2.244       .  S
In196       O201   2.241       .  S
In196       O203   2.241       .  S
In196       O204   2.256       .  S
In196       O205   2.243       .  S
In196       O208   2.233       .  S
C197        O203   1.261       .  A
C197        O205   1.261       .  A
C197        C810   1.481       .  S
O198        C206   1.258       .  A
O199        C206   1.262       .  A
C200        O207   1.260       .  A
C200        O201   1.261       .  A
C200        C953   1.472       .  S
C202        O204   1.263       .  A
C202        O208   1.258       .  A
C202        C869   1.483       .  S
C206       C1034   1.483       .  S
In209       O211   2.227       .  S
In209       O212   2.236       .  S
In209       O220   2.244       .  S
In209       O214   2.241       .  S
In209       O216   2.246       .  S
In209       O217   2.251       .  S
In209       O218   2.222       .  S
In209       O221   2.219       .  S
C210        O216   1.262       .  A
C210        O218   1.260       .  A
C210        C796   1.478       .  S
O211        C219   1.261       .  A
O212        C219   1.262       .  A
C213        O220   1.259       .  A
C213        O214   1.260       .  A
C213        C768   1.479       .  S
C215        O217   1.263       .  A
C215        O221   1.258       .  A
C215        C782   1.481       .  S
C219       C1149   1.479       .  S
In222       O224   2.227       .  S
In222       O225   2.242       .  S
In222       O233   2.247       .  S
In222       O227   2.237       .  S
In222       O229   2.239       .  S
In222       O230   2.244       .  S
In222       O231   2.227       .  S
In222       O234   2.241       .  S
C223        O229   1.261       .  A
C223        O231   1.258       .  A
C223        C799   1.474       .  S
O224        C232   1.260       .  A
O225        C232   1.263       .  A
C226        O233   1.259       .  A
C226        O227   1.259       .  A
C226        C740   1.470       .  S
C228        O230   1.262       .  A
C228        O234   1.260       .  A
C228        C757   1.487       .  S
C232       C1177   1.475       .  S
In235       O237   2.231       .  S
In235       O238   2.231       .  S
In235       O246   2.245       .  S
In235       O240   2.234       .  S
In235       O242   2.237       .  S
In235       O243   2.243       .  S
In235       O244   2.234       .  S
In235       O247   2.246       .  S
C236        O242   1.261       .  A
C236        O244   1.260       .  A
C236        C729   1.477       .  S
O237        C245   1.259       .  A
O238        C245   1.263       .  A
C239        O246   1.261       .  A
C239        O240   1.260       .  A
C239        C715   1.481       .  S
C241        O243   1.260       .  A
C241        O247   1.260       .  A
C241        C698   1.486       .  S
C245        C785   1.479       .  S
In248       O250   2.229       .  S
In248       O251   2.251       .  S
In248       O259   2.238       .  S
In248       O253   2.249       .  S
In248       O255   2.242       .  S
In248       O256   2.238       .  S
In248       O257   2.249       .  S
In248       O260   2.244       .  S
C249        O255   1.260       .  A
C249        O257   1.259       .  A
C249        C726   1.481       .  S
O250        C258   1.260       .  A
O251        C258   1.262       .  A
C252        O259   1.259       .  A
C252        O253   1.259       .  A
C252        C687   1.478       .  S
C254        O256   1.262       .  A
C254        O260   1.261       .  A
C254        C670   1.482       .  S
C258        C754   1.483       .  S
In261       O263   2.239       .  S
In261       O264   2.249       .  S
In261       O272   2.241       .  S
In261       O266   2.248       .  S
In261       O268   2.246       .  S
In261       O269   2.252       .  S
In261       O270   2.242       .  S
In261       O273   2.239       .  S
C262        O268   1.260       .  A
C262        O270   1.260       .  A
C262        C656   1.484       .  S
O263        C271   1.262       .  A
O264        C271   1.262       .  A
C265        O272   1.260       .  A
C265        O266   1.260       .  A
C265        C743   1.474       .  S
C267        O269   1.261       .  A
C267        O273   1.259       .  A
C267        C645   1.483       .  S
C271        C628   1.486       .  S
In274       O276   2.242       .  S
In274       O277   2.253       .  S
In274       O285   2.257       .  S
In274       O279   2.260       .  S
In274       O281   2.257       .  S
In274       O282   2.264       .  S
In274       O283   2.244       .  S
In274       O286   2.248       .  S
C275        O281   1.261       .  A
C275        O283   1.259       .  A
C275        C659   1.481       .  S
O276        C284   1.261       .  A
O277        C284   1.264       .  A
C278        O285   1.258       .  A
C278        O279   1.259       .  A
C278        C771   1.478       .  S
C280        O282   1.263       .  A
C280        O286   1.261       .  A
C280        C614   1.491       .  S
C284        C603   1.486       .  S
In287       O289   2.255       .  S
In287       O290   2.243       .  S
In287       O298   2.260       .  S
In287       O292   2.228       .  S
In287       O294   2.248       .  S
In287       O295   2.260       .  S
In287       O296   2.251       .  S
In287       O299   2.257       .  S
C288        O294   1.259       .  A
C288        O296   1.260       .  A
C288        C589   1.480       .  S
O289        C297   1.263       .  A
O290        C297   1.263       .  A
C291        O298   1.261       .  A
C291        O292   1.259       .  A
C291        C712   1.479       .  S
C293        O295   1.260       .  A
C293        O299   1.257       .  A
C293       C1107   1.487       .  S
C297        C617   1.489       .  S
In300       O302   2.231       .  S
In300       O303   2.261       .  S
In300       O311   2.244       .  S
In300       O305   2.236       .  S
In300       O307   2.234       .  S
In300       O308   2.250       .  S
In300       O309   2.244       .  S
In300       O312   2.234       .  S
C301        O307   1.260       .  A
C301        O309   1.261       .  A
C301        C586   1.479       .  S
O302        C310   1.259       .  A
O303        C310   1.264       .  A
C304        O311   1.259       .  A
C304        O305   1.259       .  A
C304        C684   1.467       .  S
C306        O308   1.265       .  A
C306        O312   1.259       .  A
C306       C1079   1.487       .  S
C310        C642   1.486       .  S
In313       O315   2.241       .  S
In313       O316   2.249       .  S
In313       O324   2.264       .  S
In313       O318   2.228       .  S
In313       O320   2.247       .  S
In313       O321   2.231       .  S
In313       O322   2.248       .  S
In313       O325   2.247       .  S
C314        O320   1.260       .  A
C314        O322   1.259       .  A
C314        C575   1.483       .  S
O315        C323   1.259       .  A
O316        C323   1.260       .  A
C317        O324   1.262       .  A
C317        O318   1.261       .  A
C317        C544   1.484       .  S
C319        O321   1.262       .  A
C319        O325   1.260       .  A
C319        C561   1.484       .  S
C323        C981   1.481       .  S
In326       O328   2.251       .  S
In326       O329   2.239       .  S
In326       O337   2.247       .  S
In326       O331   2.244       .  S
In326       O333   2.253       .  S
In326       O334   2.261       .  S
In326       O335   2.238       .  S
In326       O338   2.228       .  S
C327        O333   1.260       .  A
C327        O335   1.258       .  A
C327        C572   1.483       .  S
O328        C336   1.260       .  A
O329        C336   1.259       .  A
C330        O337   1.261       .  A
C330        O331   1.260       .  A
C330        C519   1.484       .  S
C332        O334   1.264       .  A
C332        O338   1.261       .  A
C332        C530   1.488       .  S
C336        C936   1.482       .  S
In339       O341   2.233       .  S
In339       O342   2.254       .  S
In339       O350   2.263       .  S
In339       O344   2.230       .  S
In339       O346   2.264       .  S
In339       O347   2.251       .  S
In339       O348   2.241       .  S
In339       O351   2.235       .  S
C340        O346   1.260       .  A
C340        O348   1.257       .  A
C340        C502   1.475       .  S
O341        C349   1.258       .  A
O342        C349   1.262       .  A
C343        O350   1.261       .  A
C343        O344   1.260       .  A
C343        C491   1.479       .  S
C345        O347   1.264       .  A
C345        O351   1.260       .  A
C345        C673   1.486       .  S
C349        C558   1.484       .  S
In352       O354   2.244       .  S
In352       O355   2.245       .  S
In352       O363   2.252       .  S
In352       O357   2.237       .  S
In352       O359   2.242       .  S
In352       O360   2.258       .  S
In352       O361   2.249       .  S
In352       O364   2.236       .  S
C353        O359   1.261       .  A
C353        O361   1.262       .  A
C353        C505   1.484       .  S
O354        C362   1.260       .  A
O355        C362   1.263       .  A
C356        O363   1.260       .  A
C356        O357   1.260       .  A
C356        C477   1.485       .  S
C358        O360   1.263       .  A
C358        O364   1.260       .  A
C358        C701   1.484       .  S
C362        C533   1.487       .  S
In365       O367   2.246       .  S
In365       O368   2.245       .  S
In365       O376   2.248       .  S
In365       O370   2.225       .  S
In365       O372   2.240       .  S
In365       O373   2.236       .  S
In365       O374   2.226       .  S
In365       O377   2.239       .  S
C366        O372   1.260       .  A
C366        O374   1.258       .  A
C366        C463   1.471       .  S
O367        C375   1.258       .  A
O368        C375   1.261       .  A
C369        O376   1.261       .  A
C369        O370   1.260       .  A
C369        C488   1.481       .  S
C371        O373   1.263       .  A
C371        O377   1.261       .  A
C371        C855   1.481       .  S
C375        C446   1.484       .  S
In378       O380   2.238       .  S
In378       O381   2.258       .  S
In378       O389   2.267       .  S
In378       O383   2.220       .  S
In378       O385   2.245       .  S
In378       O386   2.253       .  S
In378       O387   2.236       .  S
In378       O390   2.246       .  S
C379        O385   1.259       .  A
C379        O387   1.259       .  A
C379        C460   1.474       .  S
O380        C388   1.258       .  A
O381        C388   1.262       .  A
C382        O389   1.263       .  A
C382        O383   1.257       .  A
C382        C474   1.487       .  S
C384        O386   1.263       .  A
C384        O390   1.261       .  A
C384        C827   1.487       .  S
C388        C432   1.487       .  S
In391       O393   2.249       .  S
In391       O394   2.250       .  S
In391       O402   2.253       .  S
In391       O396   2.235       .  S
In391       O398   2.241       .  S
In391       O399   2.242       .  S
In391       O400   2.235       .  S
In391       O403   2.246       .  S
C392        O398   1.260       .  A
C392        O400   1.260       .  A
C392        C421   1.476       .  S
O393        C401   1.259       .  A
O394        C401   1.260       .  A
C395        O402   1.261       .  A
C395        O396   1.259       .  A
C395        C516   1.482       .  S
C397        O399   1.262       .  A
C397        O403   1.262       .  A
C397        C435   1.487       .  S
C401        C631   1.486       .  S
In404       O406   2.254       .  S
In404       O407   2.246       .  S
In404       O415   2.266       .  S
In404       O409   2.239       .  S
In404       O411   2.248       .  S
In404       O412   2.246       .  S
In404       O413   2.247       .  S
In404       O416   2.239       .  S
C405        O411   1.259       .  A
C405        O413   1.259       .  A
C405        C418   1.483       .  S
O406        C414   1.260       .  A
O407        C414   1.258       .  A
C408        O415   1.262       .  A
C408        O409   1.258       .  A
C408        C547   1.490       .  S
C410        O412   1.261       .  A
C410        O416   1.261       .  A
C410        C449   1.485       .  S
C414        C600   1.488       .  S
C417        C418   1.406       .  A
C417        C422   1.405       .  A
C417        H424   1.083       .  S
C418        C419   1.417       .  A
C419        C420   1.396   1_455  A
C419        N426   1.432   1_455  S
C420        C421   1.402       .  A
C420        H425   1.084       .  S
C421        C422   1.411   1_655  A
C422        N423   1.438       .  S
N423        H427   1.046       .  S
N423        H428   1.046       .  S
N426        H429   1.045   1_655  S
N426        H430   1.045   1_655  S
C431        C432   1.406       .  A
C431        C436   1.405       .  A
C431        H438   1.083       .  S
C432        C433   1.413       .  A
C433        C434   1.407       .  A
C433        N440   1.438       .  S
C434        C435   1.406       .  A
C434        H439   1.083       .  S
C435        C436   1.413       .  A
C436        N437   1.438       .  S
N437        H441   1.046       .  S
N437        H442   1.046       .  S
N440        H443   1.046       .  S
N440        H444   1.046       .  S
C445        C446   1.403       .  A
C445        C450   1.404       .  A
C445        H452   1.083       .  S
C446        C447   1.415       .  A
C447        C448   1.407       .  A
C447        N454   1.438       .  S
C448        C449   1.405       .  A
C448        H453   1.083       .  S
C449        C450   1.414       .  A
C450        N451   1.438       .  S
N451        H455   1.046       .  S
N451        H456   1.046       .  S
N454        H457   1.046       .  S
N454        H458   1.046       .  S
C459        C460   1.403       .  A
C459        C464   1.401       .  A
C459        H466   1.084       .  S
C460        C461   1.415       .  A
C461        C462   1.397       .  A
C461        N468   1.432       .  S
C462        C463   1.402       .  A
C462        H467   1.084       .  S
C463        C464   1.412       .  A
C464        N465   1.438       .  S
N465        H469   1.046       .  S
N465        H470   1.045       .  S
N468        H471   1.047       .  S
N468        H472   1.043       .  S
C473        C474   1.406       .  A
C473        C478   1.410       .  A
C473        H480   1.083       .  S
C474        C475   1.418       .  A
C475        C476   1.395       .  A
C475        N482   1.433       .  S
C476        C477   1.402       .  A
C476        H481   1.084       .  S
C477        C478   1.415       .  A
C478        N479   1.438       .  S
N479        H483   1.046       .  S
N479        H484   1.045       .  S
N482        H485   1.045       .  S
N482        H486   1.045       .  S
C487        C488   1.403       .  A
C487        C492   1.401   1_565  A
C487        H494   1.084       .  S
C488        C489   1.414       .  A
C489        C490   1.409   1_565  A
C489        N496   1.438       .  S
C490        C491   1.404       .  A
C490        H495   1.084       .  S
C491        C492   1.411       .  A
C492        N493   1.438       .  S
N493        H497   1.046   1_545  S
N493        H498   1.046       .  S
N496        H499   1.046       .  S
N496        H500   1.045       .  S
C501        C502   1.401       .  A
C501        C506   1.408       .  A
C501        H508   1.084       .  S
C502        C503   1.413       .  A
C503        C504   1.399       .  A
C503        N510   1.433       .  S
C504        C505   1.405       .  A
C504        H509   1.084       .  S
C505        C506   1.416       .  A
C506        N507   1.438       .  S
N507        H511   1.045       .  S
N507        H512   1.046       .  S
N510        H513   1.046       .  S
N510        H514   1.044       .  S
C515        C516   1.404       .  A
C515        C520   1.397   1_565  A
C515        H522   1.084       .  S
C516        C517   1.413       .  A
C517        C518   1.407   1_565  A
C517        N524   1.438       .  S
C518        C519   1.406       .  A
C518        H523   1.083       .  S
C519        C520   1.417       .  A
C520        N521   1.432       .  S
N521        H525   1.045       .  S
N521        H526   1.045       .  S
N524        H527   1.046       .  S
N524        H528   1.046       .  S
C529        C530   1.405       .  A
C529        C534   1.404       .  A
C529        H536   1.083       .  S
C530        C531   1.414       .  A
C531        C532   1.409       .  A
C531        N538   1.438       .  S
C532        C533   1.407       .  A
C532        H537   1.083       .  S
C533        C534   1.413       .  A
C534        N535   1.438       .  S
N535        H539   1.046       .  S
N535        H540   1.046       .  S
N538        H541   1.045       .  S
N538        H542   1.046       .  S
C543        C544   1.402       .  A
C543        C548   1.396       .  A
C543        H550   1.084       .  S
C544        C545   1.413       .  A
C545        C546   1.411       .  A
C545        N552   1.438       .  S
C546        C547   1.408       .  A
C546        H551   1.083       .  S
C547        C548   1.419       .  A
C548        N549   1.432       .  S
N549        H553   1.045       .  S
N549        H554   1.045       .  S
N552        H555   1.046       .  S
N552        H556   1.046       .  S
C557        C558   1.405       .  A
C557        C562   1.401       .  A
C557        H564   1.084       .  S
C558        C559   1.417       .  A
C559        C560   1.396       .  A
C559        N566   1.432       .  S
C560        C561   1.403       .  A
C560        H565   1.084       .  S
C561        C562   1.418       .  A
C562        N563   1.432       .  S
N563        H567   1.046       .  S
N563        H568   1.044       .  S
N566        H569   1.044       .  S
N566        H570   1.046       .  S
C571        C572   1.405       .  A
C571        C576   1.403   1_655  A
C571        H578   1.083       .  S
C572        C573   1.414   1_655  A
C573        C574   1.407       .  A
C573        N580   1.438       .  S
C574        C575   1.406       .  A
C574        H579   1.084       .  S
C575        C576   1.412       .  A
C576        N577   1.438       .  S
N577        H581   1.046   1_455  S
N577        H582   1.046       .  S
N580        H583   1.046       .  S
N580        H584   1.046       .  S
C585        C586   1.403   1_655  A
C585        C590   1.398       .  A
C585        H592   1.084       .  S
C586        C587   1.413       .  A
C587        C588   1.406       .  A
C587        N594   1.438       .  S
C588        C589   1.404   1_455  A
C588        H593   1.084       .  S
C589        C590   1.415       .  A
C590        N591   1.432       .  S
N591        H595   1.045       .  S
N591        H596   1.045       .  S
N594        H597   1.045       .  S
N594        H598   1.046       .  S
C599        C600   1.405       .  A
C599        C604   1.407       .  A
C599        H606   1.083       .  S
C600        C601   1.415       .  A
C601        C602   1.407       .  A
C601        N608   1.438       .  S
C602        C603   1.405       .  A
C602        H607   1.084       .  S
C603        C604   1.413       .  A
C604        N605   1.438       .  S
N605        H609   1.046       .  S
N605        H610   1.046       .  S
N608        H611   1.046       .  S
N608        H612   1.046       .  S
C613        C614   1.406       .  A
C613        C618   1.407       .  A
C613        H620   1.083       .  S
C614        C615   1.415       .  A
C615        C616   1.410   1_455  A
C615        N622   1.438       .  S
C616        C617   1.406       .  A
C616        H621   1.083       .  S
C617        C618   1.414   1_655  A
C618        N619   1.438       .  S
N619        H623   1.046       .  S
N619        H624   1.046       .  S
N622        H625   1.045       .  S
N622        H626   1.046       .  S
C627        C628   1.404       .  A
C627        C632   1.405       .  A
C627        H634   1.083       .  S
C628        C629   1.414       .  A
C629        C630   1.407       .  A
C629        N636   1.438       .  S
C630        C631   1.406       .  A
C630        H635   1.084       .  S
C631        C632   1.414       .  A
C632        N633   1.438       .  S
N633        H637   1.046       .  S
N633        H638   1.045       .  S
N636        H639   1.046       .  S
N636        H640   1.046       .  S
C641        C642   1.407       .  A
C641        C646   1.405   1_455  A
C641        H648   1.083       .  S
C642        C643   1.413   1_545  A
C643        C644   1.406       .  A
C643        N650   1.437       .  S
C644        C645   1.405   1_455  A
C644        H649   1.083       .  S
C645        C646   1.412   1_565  A
C646        N647   1.438       .  S
N647        H651   1.046       .  S
N647        H652   1.045       .  S
N650        H653   1.045       .  S
N650        H654   1.046       .  S
C655        C656   1.406   1_455  A
C655        C660   1.405       .  A
C655        H662   1.083       .  S
C656        C657   1.415       .  A
C657        C658   1.406       .  A
C657        N664   1.438       .  S
C658        C659   1.404   1_655  A
C658        H663   1.084       .  S
C659        C660   1.411       .  A
C660        N661   1.438       .  S
N661        H665   1.046       .  S
N661        H666   1.046       .  S
N664        H667   1.045       .  S
N664        H668   1.046       .  S
C669        C670   1.402       .  A
C669        C674   1.404       .  A
C669        H676   1.084       .  S
C670        C671   1.412       .  A
C671        C672   1.407       .  A
C671        N678   1.438       .  S
C672        C673   1.406       .  A
C672        H677   1.083       .  S
C673        C674   1.416       .  A
C674        N675   1.438       .  S
N675        H679   1.046       .  S
N675        H680   1.046       .  S
N678        H681   1.046       .  S
N678        H682   1.046       .  S
C683        C684   1.401       .  A
C683        C688   1.397       .  A
C683        H690   1.085       .  S
C684        C685   1.415       .  A
C685        C686   1.400       .  A
C685        N692   1.439       .  S
C686        C687   1.404       .  A
C686        H691   1.084       .  S
C687        C688   1.415       .  A
C688        N689   1.432       .  S
N689        H693   1.045       .  S
N689        H694   1.045       .  S
N692        H695   1.043       .  S
N692        H696   1.045       .  S
C697        C698   1.406       .  A
C697        C702   1.404       .  A
C697        H704   1.084       .  S
C698        C699   1.418       .  A
C699        C700   1.399       .  A
C699        N706   1.432       .  S
C700        C701   1.404       .  A
C700        H705   1.084       .  S
C701        C702   1.410       .  A
C702        N703   1.432       .  S
N703        H707   1.046       .  S
N703        H708   1.046       .  S
N706        H709   1.045       .  S
N706        H710   1.045       .  S
C711        C712   1.403       .  A
C711        C716   1.398       .  A
C711        H718   1.084       .  S
C712        C713   1.413       .  A
C713        C714   1.408       .  A
C713        N720   1.437       .  S
C714        C715   1.406       .  A
C714        H719   1.083       .  S
C715        C716   1.410       .  A
C716        N717   1.433       .  S
N717        H721   1.046       .  S
N717        H722   1.046       .  S
N720        H723   1.044       .  S
N720        H724   1.047       .  S
C725        C726   1.405       .  A
C725        C730   1.403       .  A
C725        H732   1.084       .  S
C726        C727   1.411       .  A
C727        C728   1.401       .  A
C727        N734   1.432       .  S
C728        C729   1.403       .  A
C728        H733   1.084       .  S
C729        C730   1.410       .  A
C730        N731   1.433       .  S
N731        H735   1.045       .  S
N731        H736   1.046       .  S
N734        H737   1.046       .  S
N734        H738   1.046       .  S
C739        C740   1.400       .  A
C739        C744   1.403       .  A
C739        H746   1.084       .  S
C740        C741   1.414       .  A
C741        C742   1.399       .  A
C741        N748   1.433       .  S
C742        C743   1.403       .  A
C742        H747   1.084       .  S
C743        C744   1.411       .  A
C744        N745   1.438       .  S
N745        H749   1.046       .  S
N745        H750   1.046       .  S
N748        H751   1.043       .  S
N748        H752   1.047       .  S
C753        C754   1.404       .  A
C753        C758   1.396       .  A
C753        H760   1.084       .  S
C754        C755   1.413   1_545  A
C755        C756   1.408       .  A
C755        N762   1.438       .  S
C756        C757   1.408       .  A
C756        H761   1.083       .  S
C757        C758   1.416   1_565  A
C758        N759   1.432       .  S
N759        H763   1.046       .  S
N759        H764   1.045       .  S
N762        H765   1.046       .  S
N762        H766   1.046       .  S
C767        C768   1.404       .  A
C767        C772   1.406       .  A
C767        H774   1.084       .  S
C768        C769   1.416       .  A
C769        C770   1.401       .  A
C769        N776   1.433       .  S
C770        C771   1.402       .  A
C770        H775   1.084       .  S
C771        C772   1.411       .  A
C772        N773   1.438       .  S
N773        H777   1.046       .  S
N773        H778   1.045       .  S
N776        H779   1.042       .  S
N776        H780   1.049       .  S
C781        C782   1.404       .  A
C781        C786   1.405       .  A
C781        H788   1.083       .  S
C782        C783   1.415       .  A
C783        C784   1.401       .  A
C783        N790   1.438       .  S
C784        C785   1.402       .  A
C784        H789   1.083       .  S
C785        C786   1.415       .  A
C786        N787   1.438       .  S
N787        H791   1.046       .  S
N787        H792   1.045       .  S
N790        H793   1.046       .  S
N790        H794   1.045       .  S
C795        C796   1.405       .  A
C795        C800   1.401       .  A
C795        H802   1.084       .  S
C796        C797   1.413       .  A
C797        C798   1.404       .  A
C797        N804   1.438       .  S
C798        C799   1.404       .  A
C798        H803   1.084       .  S
C799        C800   1.410       .  A
C800        N801   1.438       .  S
N801        H805   1.046       .  S
N801        H806   1.046       .  S
N804        H807   1.046       .  S
N804        H808   1.046       .  S
C809        C810   1.405       .  A
C809        C814   1.406       .  A
C809        H816   1.084       .  S
C810        C811   1.415       .  A
C811        C812   1.398       .  A
C811        N818   1.432       .  S
C812        C813   1.403       .  A
C812        H817   1.084       .  S
C813        C814   1.413       .  A
C814        N815   1.438       .  S
N815        H819   1.045       .  S
N815        H820   1.046       .  S
N818        H821   1.046       .  S
N818        H822   1.045       .  S
C823        C824   1.406       .  A
C823        C828   1.406       .  A
C823        H830   1.084       .  S
C824        C825   1.416       .  A
C825        C826   1.400       .  A
C825        N832   1.433       .  S
C826        C827   1.406       .  A
C826        H831   1.084       .  S
C827        C828   1.414       .  A
C828        N829   1.437       .  S
N829        H833   1.046       .  S
N829        H834   1.046       .  S
N832        H835   1.045       .  S
N832        H836   1.046       .  S
C837        C838   1.404       .  A
C837        C842   1.395       .  A
C837        H844   1.084       .  S
C838        C839   1.418   1_556  A
C839        C840   1.399       .  A
C839        N846   1.432       .  S
C840        C841   1.403       .  A
C840        H845   1.084       .  S
C841        C842   1.416   1_554  A
C842        N843   1.433       .  S
N843        H847   1.042       .  S
N843        H848   1.048       .  S
N846        H849   1.045   1_554  S
N846        H850   1.045       .  S
C851        C852   1.405       .  A
C851        C856   1.404       .  A
C851        H858   1.084       .  S
C852        C853   1.416       .  A
C853        C854   1.404       .  A
C853        N860   1.438       .  S
C854        C855   1.403       .  A
C854        H859   1.083       .  S
C855        C856   1.411       .  A
C856        N857   1.432       .  S
N857        H861   1.046       .  S
N857        H862   1.046       .  S
N860        H863   1.046       .  S
N860        H864   1.046       .  S
C865        C866   1.402   1_545  A
C865        C870   1.406   1_554  A
C865        H872   1.084       .  S
C866        C867   1.415   1_554  A
C867        C868   1.405       .  A
C867        N874   1.438       .  S
C868        C869   1.403   1_565  A
C868        H873   1.084       .  S
C869        C870   1.416       .  A
C870        N871   1.438   1_556  S
N871        H875   1.046       .  S
N871        H876   1.046   1_554  S
N874        H877   1.046   1_556  S
N874        H878   1.046       .  S
C879        C880   1.404       .  A
C879        C884   1.399       .  A
C879        H886   1.084       .  S
C880        C881   1.413       .  A
C881        C882   1.406       .  A
C881        N888   1.438       .  S
C882        C883   1.406       .  A
C882        H887   1.084       .  S
C883        C884   1.417       .  A
C884        N885   1.432       .  S
N885        H889   1.045       .  S
N885        H890   1.045       .  S
N888        H891   1.046       .  S
N888        H892   1.046       .  S
C893        C894   1.402   1_554  A
C893        C898   1.398       .  A
C893        H900   1.084       .  S
C894        C895   1.411       .  A
C895        C896   1.406       .  A
C895        N902   1.438       .  S
C896        C897   1.402   1_556  A
C896        H901   1.084       .  S
C897        C898   1.413       .  A
C898        N899   1.433       .  S
N899        H903   1.045       .  S
N899        H904   1.046       .  S
N902        H905   1.046       .  S
N902        H906   1.045       .  S
C907        C908   1.402       .  A
C907        C912   1.397       .  A
C907        H914   1.084       .  S
C908        C909   1.410   1_554  A
C909        C910   1.407       .  A
C909        N916   1.438       .  S
C910        C911   1.405       .  A
C910        H915   1.084       .  S
C911        C912   1.413   1_556  A
C912        N913   1.432       .  S
N913        H917   1.044       .  S
N913        H918   1.046       .  S
N916        H919   1.046       .  S
N916        H920   1.046       .  S
C921        C922   1.402       .  A
C921        C926   1.402       .  A
C921        H928   1.083       .  S
C922        C923   1.414   1_455  A
C923        C924   1.405       .  A
C923        N930   1.438       .  S
C924        C925   1.404       .  A
C924        H929   1.084       .  S
C925        C926   1.414   1_655  A
C926        N927   1.438       .  S
N927        H931   1.046       .  S
N927        H932   1.046       .  S
N930        H933   1.046       .  S
N930        H934   1.046       .  S
C935        C936   1.405       .  A
C935        C940   1.406       .  A
C935        H942   1.083       .  S
C936        C937   1.412       .  A
C937        C938   1.403       .  A
C937        N944   1.438       .  S
C938        C939   1.405       .  A
C938        H943   1.083       .  S
C939        C940   1.414       .  A
C940        N941   1.438       .  S
N941        H945   1.046       .  S
N941        H946   1.046       .  S
N944        H947   1.046       .  S
N944        H948   1.045       .  S
C949        C950   1.402       .  A
C949        C954   1.405       .  A
C949        H956   1.084       .  S
C950        C951   1.412   1_554  A
C951        C952   1.399       .  A
C951        N958   1.433       .  S
C952        C953   1.403       .  A
C952        H957   1.084       .  S
C953        C954   1.410   1_556  A
C954        N955   1.438       .  S
N955        H959   1.045       .  S
N955        H960   1.047       .  S
N958        H961   1.046       .  S
N958        H962   1.045       .  S
C963        C964   1.406   1_554  A
C963        C968   1.406   1_455  A
C963        H970   1.083       .  S
C964        C965   1.413   1_565  A
C965        C966   1.401   1_455  A
C965        N972   1.438       .  S
C966        C967   1.403   1_556  A
C966        H971   1.083       .  S
C967        C968   1.413   1_545  A
C968        N969   1.438       .  S
N969        H973   1.046       .  S
N969        H974   1.046       .  S
N972        H975   1.045       .  S
N972        H976   1.046       .  S
C977        C978   1.406       .  A
C977        C982   1.405       .  A
C977        H984   1.083       .  S
C978        C979   1.411       .  A
C979        C980   1.405       .  A
C979        N986   1.437       .  S
C980        C981   1.404       .  A
C980        H985   1.084       .  S
C981        C982   1.413       .  A
C982        N983   1.438       .  S
N983        H987   1.046       .  S
N983        H988   1.046       .  S
N986        H989   1.046       .  S
N986        H990   1.046       .  S
C991        C992   1.404       .  A
C991        C996   1.403   1_556  A
C991        H998   1.083       .  S
C992        C993   1.411       .  A
C993        C994   1.405       .  A
C993       N1000   1.432       .  S
C994        C995   1.403   1_556  A
C994        H999   1.084       .  S
C995        C996   1.413       .  A
C996        N997   1.439       .  S
N997       H1001   1.046       .  S
N997       H1002   1.046       .  S
N1000      H1003   1.045       .  S
N1000      H1004   1.046       .  S
C1005      C1006   1.402       .  A
C1005      C1010   1.404   1_455  A
C1005      H1012   1.084       .  S
C1006      C1007   1.414   1_554  A
C1007      C1008   1.406   1_455  A
C1007      N1014   1.438       .  S
C1008      C1009   1.405       .  A
C1008      H1013   1.083       .  S
C1009      C1010   1.416   1_556  A
C1010      N1011   1.438       .  S
N1011      H1015   1.046       .  S
N1011      H1016   1.046       .  S
N1014      H1017   1.046       .  S
N1014      H1018   1.045       .  S
C1019      C1020   1.403       .  A
C1019      C1024   1.402       .  A
C1019      H1026   1.084       .  S
C1020      C1021   1.414   1_455  A
C1021      C1022   1.405       .  A
C1021      N1028   1.438       .  S
C1022      C1023   1.403       .  A
C1022      H1027   1.084       .  S
C1023      C1024   1.412   1_655  A
C1024      N1025   1.438       .  S
N1025      H1029   1.046       .  S
N1025      H1030   1.046       .  S
N1028      H1031   1.045       .  S
N1028      H1032   1.046       .  S
C1033      C1034   1.404       .  A
C1033      C1038   1.402       .  A
C1033      H1040   1.084       .  S
C1034      C1035   1.413       .  A
C1035      C1036   1.402       .  A
C1035      N1042   1.432       .  S
C1036      C1037   1.402       .  A
C1036      H1041   1.084       .  S
C1037      C1038   1.410       .  A
C1038      N1039   1.433       .  S
N1039      H1043   1.045       .  S
N1039      H1044   1.046       .  S
N1042      H1045   1.046       .  S
N1042      H1046   1.046       .  S
C1047      C1048   1.403       .  A
C1047      C1052   1.403       .  A
C1047      H1054   1.083       .  S
C1048      C1049   1.415       .  A
C1049      C1050   1.406       .  A
C1049      N1056   1.438       .  S
C1050      C1051   1.404       .  A
C1050      H1055   1.084       .  S
C1051      C1052   1.412       .  A
C1052      N1053   1.438       .  S
N1053      H1057   1.046       .  S
N1053      H1058   1.046       .  S
N1056      H1059   1.046       .  S
N1056      H1060   1.046       .  S
C1061      C1062   1.404       .  A
C1061      C1066   1.399       .  A
C1061      H1068   1.084       .  S
C1062      C1063   1.417       .  A
C1063      C1064   1.399       .  A
C1063      N1070   1.432       .  S
C1064      C1065   1.402       .  A
C1064      H1069   1.084       .  S
C1065      C1066   1.406       .  A
C1066      N1067   1.433       .  S
N1067      H1071   1.046       .  S
N1067      H1072   1.045       .  S
N1070      H1073   1.046       .  S
N1070      H1074   1.045       .  S
C1075      C1076   1.404       .  A
C1075      C1080   1.407       .  A
C1075      H1082   1.084       .  S
C1076      C1077   1.418       .  A
C1077      C1078   1.398       .  A
C1077      N1084   1.432       .  S
C1078      C1079   1.403       .  A
C1078      H1083   1.084       .  S
C1079      C1080   1.417       .  A
C1080      N1081   1.438       .  S
N1081      H1085   1.046       .  S
N1081      H1086   1.045       .  S
N1084      H1087   1.045       .  S
N1084      H1088   1.045       .  S
C1089      C1090   1.406       .  A
C1089      C1094   1.409       .  A
C1089      H1096   1.083       .  S
C1090      C1091   1.415       .  A
C1091      C1092   1.406       .  A
C1091      N1098   1.438       .  S
C1092      C1093   1.406       .  A
C1092      H1097   1.083       .  S
C1093      C1094   1.415       .  A
C1094      N1095   1.438       .  S
N1095      H1099   1.045       .  S
N1095      H1100   1.046       .  S
N1098      H1101   1.046       .  S
N1098      H1102   1.045       .  S
C1103      C1104   1.404       .  A
C1103      C1108   1.403       .  A
C1103      H1110   1.084       .  S
C1104      C1105   1.412       .  A
C1105      C1106   1.406       .  A
C1105      N1112   1.433       .  S
C1106      C1107   1.407       .  A
C1106      H1111   1.084       .  S
C1107      C1108   1.411       .  A
C1108      N1109   1.432       .  S
N1109      H1113   1.046       .  S
N1109      H1114   1.046       .  S
N1112      H1115   1.045       .  S
N1112      H1116   1.046       .  S
C1117      C1118   1.403       .  A
C1117      C1122   1.398       .  A
C1117      H1124   1.083       .  S
C1118      C1119   1.414       .  A
C1119      C1120   1.404       .  A
C1119      N1126   1.438       .  S
C1120      C1121   1.404       .  A
C1120      H1125   1.084       .  S
C1121      C1122   1.412       .  A
C1122      N1123   1.438       .  S
N1123      H1127   1.046       .  S
N1123      H1128   1.045       .  S
N1126      H1129   1.045       .  S
N1126      H1130   1.046       .  S
C1131      C1132   1.403   1_455  A
C1131      C1136   1.399       .  A
C1131      H1138   1.084       .  S
C1132      C1133   1.415       .  A
C1133      C1134   1.405   1_655  A
C1133      N1140   1.438       .  S
C1134      C1135   1.403       .  A
C1134      H1139   1.084       .  S
C1135      C1136   1.409       .  A
C1136      N1137   1.432       .  S
N1137      H1141   1.046       .  S
N1137      H1142   1.046       .  S
N1140      H1143   1.046       .  S
N1140      H1144   1.046       .  S
C1145      C1146   1.405       .  A
C1145      C1150   1.403       .  A
C1145      H1152   1.083       .  S
C1146      C1147   1.413       .  A
C1147      C1148   1.404       .  A
C1147      N1154   1.438       .  S
C1148      C1149   1.405       .  A
C1148      H1153   1.084       .  S
C1149      C1150   1.412       .  A
C1150      N1151   1.438       .  S
N1151      H1155   1.046       .  S
N1151      H1156   1.046       .  S
N1154      H1157   1.046       .  S
N1154      H1158   1.046       .  S
C1159      C1160   1.401       .  A
C1159      C1164   1.396       .  A
C1159      H1166   1.084       .  S
C1160      C1161   1.414       .  A
C1161      C1162   1.410       .  A
C1161      N1168   1.438       .  S
C1162      C1163   1.406       .  A
C1162      H1167   1.083       .  S
C1163      C1164   1.411       .  A
C1164      N1165   1.433       .  S
N1165      H1169   1.046       .  S
N1165      H1170   1.046       .  S
N1168      H1171   1.046       .  S
N1168      H1172   1.046       .  S
C1173      C1174   1.408       .  A
C1173      C1178   1.404       .  A
C1173      H1180   1.083       .  S
C1174      C1175   1.414       .  A
C1175      C1176   1.405       .  A
C1175      N1182   1.437       .  S
C1176      C1177   1.403       .  A
C1176      H1181   1.084       .  S
C1177      C1178   1.409       .  A
C1178      N1179   1.439       .  S
N1179      H1183   1.045       .  S
N1179      H1184   1.046       .  S
N1182      H1185   1.046       .  S
N1182      H1186   1.045       .  S
C1187      C1188   1.402       .  A
C1187      C1192   1.405       .  A
C1187      H1194   1.084       .  S
C1188      C1189   1.413       .  A
C1189      C1190   1.397   1_545  A
C1189      N1196   1.433       .  S
C1190      C1191   1.402       .  A
C1190      H1195   1.084       .  S
C1191      C1192   1.412   1_565  A
C1192      N1193   1.438   1_545  S
N1193      H1197   1.046   1_565  S
N1193      H1198   1.045       .  S
N1196      H1199   1.046       .  S
N1196      H1200   1.044       .  S
C1201      C1202   1.403       .  A
C1201      C1206   1.406       .  A
C1201      H1208   1.084       .  S
C1202      C1203   1.409       .  A
C1203      C1204   1.401       .  A
C1203      N1210   1.433       .  S
C1204      C1205   1.403       .  A
C1204      H1209   1.084       .  S
C1205      C1206   1.413       .  A
C1206      N1207   1.438       .  S
N1207      H1211   1.045       .  S
N1207      H1212   1.046       .  S
N1210      H1213   1.045       .  S
N1210      H1214   1.046       .  S
C1215      C1216   1.403       .  A
C1215      C1220   1.398       .  A
C1215      H1222   1.084       .  S
C1216      C1217   1.415       .  A
C1217      C1218   1.405       .  A
C1217      N1224   1.438       .  S
C1218      C1219   1.404       .  A
C1218      H1223   1.083       .  S
C1219      C1220   1.418       .  A
C1220      N1221   1.433       .  S
N1221      H1225   1.045       .  S
N1221      H1226   1.046       .  S
N1224      H1227   1.046       .  S
N1224      H1228   1.045       .  S
C1229      C1230   1.405       .  A
C1229      C1234   1.405   1_565  A
C1229      H1236   1.083       .  S
C1230      C1231   1.415       .  A
C1231      C1232   1.409   1_565  A
C1231      N1238   1.438       .  S
C1232      C1233   1.404       .  A
C1232      H1237   1.084       .  S
C1233      C1234   1.413       .  A
C1234      N1235   1.438       .  S
N1235      H1239   1.046       .  S
N1235      H1240   1.046       .  S
N1238      H1241   1.046       .  S
N1238      H1242   1.045       .  S
C1243      C1244   1.406       .  A
C1243      C1248   1.406       .  A
C1243      H1250   1.084       .  S
C1244      C1245   1.412       .  A
C1245      C1246   1.404       .  A
C1245      N1252   1.432       .  S
C1246      C1247   1.405       .  A
C1246      H1251   1.084       .  S
C1247      C1248   1.411       .  A
C1248      N1249   1.432       .  S
N1249      H1253   1.045       .  S
N1249      H1254   1.046       .  S
N1252      H1255   1.046       .  S
N1252      H1256   1.046       .  S
C1257      C1258   1.403       .  A
C1257      C1262   1.399       .  A
C1257      H1264   1.084       .  S
C1258      C1259   1.417       .  A
C1259      C1260   1.397       .  A
C1259      N1266   1.433       .  S
C1260      C1261   1.404       .  A
C1260      H1265   1.084       .  S
C1261      C1262   1.420       .  A
C1262      N1263   1.433       .  S
N1263      H1267   1.043       .  S
N1263      H1268   1.047       .  S
N1266      H1269   1.044       .  S
N1266      H1270   1.047       .  S
C1271      C1272   1.406       .  A
C1271      C1276   1.407       .  A
C1271      H1278   1.084       .  S
C1272      C1273   1.412       .  A
C1273      C1274   1.398       .  A
C1273      N1280   1.433       .  S
C1274      C1275   1.402       .  A
C1274      H1279   1.084       .  S
C1275      C1276   1.411       .  A
C1276      N1277   1.432       .  S
N1277      H1281   1.045       .  S
N1277      H1282   1.046       .  S
N1280      H1283   1.046       .  S
N1280      H1284   1.046       .  S
C1285      C1286   1.407       .  A
C1285      C1290   1.407       .  A
C1285      H1292   1.084       .  S
C1286      C1287   1.412       .  A
C1287      C1288   1.403       .  A
C1287      N1294   1.433       .  S
C1288      C1289   1.406       .  A
C1288      H1293   1.084       .  S
C1289      C1290   1.411       .  A
C1290      N1291   1.432       .  S
N1291      H1295   1.046       .  S
N1291      H1296   1.045       .  S
N1294      H1297   1.046       .  S
N1294      H1298   1.046       .  S
C1299      C1300   1.406       .  A
C1299      C1304   1.405       .  A
C1299      H1306   1.084       .  S
C1300      C1301   1.413       .  A
C1301      C1302   1.402   1_455  A
C1301      N1308   1.438   1_455  S
C1302      C1303   1.402       .  A
C1302      H1307   1.084       .  S
C1303      C1304   1.410   1_655  A
C1304      N1305   1.433       .  S
N1305      H1309   1.046       .  S
N1305      H1310   1.046       .  S
N1308      H1311   1.045   1_655  S
N1308      H1312   1.046       .  S
