geometry optimzed in LAMMPS
_audit_creation_date              2020-12-01 
_audit_creation_method            'lammps2cif' 
_symmetry_space_group_name_H-M    'P1' 
_symmetry_Int_Tables_number       1 
_symmetry_cell_setting            triclinic 
loop_ 
_symmetry_equiv_pos_as_xyz 
  x,y,z 
_cell_length_a                    29.1146469 
_cell_length_b                    29.120478165736163 
_cell_length_c                    39.96417512962116 
_cell_angle_alpha                 90.10953613923759 
_cell_angle_beta                  89.93807106858887 
_cell_angle_gamma                 89.87980531568711 
loop_ 
_atom_site_label 
_atom_site_type_symbol 
_atom_site_fract_x 
_atom_site_fract_y 
_atom_site_fract_z 
_atom_site_charge 
O1          O  0.86050102  0.96750178  0.63444198    -0.72100
O2          O  0.80131726  0.85078825  0.62872328    -0.72300
O3          O  0.80633423  0.91686969  0.67534484    -0.72200
O4          O  0.85452225  0.90119367  0.58790187    -0.72200
O5          O  0.91618920  0.87038786  0.60840518    -0.72200
O6          O  0.86586792  0.88214252  0.69597047    -0.72200
O7          O  0.86310428  0.81844796  0.64780179    -0.72100
O8          O  0.91960138  0.93411750  0.65695948    -0.72300
V9          V  0.83182325  0.90858301  0.63201810     1.35200
V10         V  0.89003172  0.87703384  0.65188410     1.35200
C11         C  0.90047370  0.97037690  0.64670987     0.77100
C12         C  0.82244526  0.81458931  0.63726781     0.77200
C13         C  0.82704552  0.90081545  0.70053012     0.77100
C14         C  0.89347821  0.88316936  0.58304725     0.77000
O15         O  0.04176266  0.14508105  0.62873876    -0.72100
O16         O  0.15840647  0.20413189  0.61959896    -0.72300
O17         O  0.10633792  0.14954234  0.58051679    -0.72200
O18         O  0.09379879  0.20052375  0.66750802    -0.72200
O19         O  0.12888818  0.14141801  0.68847197    -0.72200
O20         O  0.13879766  0.08896900  0.60132856    -0.72200
O21         O  0.19167890  0.14326262  0.63934071    -0.72100
O22         O  0.07643221  0.08656067  0.65103393    -0.72300
V23         V  0.10065938  0.17367686  0.62445009     1.35200
V24         V  0.13318306  0.11620367  0.64459737     1.35200
C25         C  0.03954797  0.10575696  0.64213984     0.77100
C26         C  0.19500938  0.18357062  0.62807329     0.77200
C27         C  0.12500959  0.11079601  0.57584920     0.77100
C28         C  0.10966420  0.18001009  0.69284865     0.77000
O29         O  0.04342025  0.29755607  0.88882601    -0.72100
O30         O  0.16221949  0.24309952  0.89629271    -0.72300
O31         O  0.10877759  0.29485837  0.93605210    -0.72200
O32         O  0.09687160  0.24485646  0.84901577    -0.72200
O33         O  0.12783282  0.30601888  0.82785806    -0.72200
O34         O  0.13946329  0.35649254  0.91556666    -0.72200
O35         O  0.19244729  0.30481341  0.87570604    -0.72100
O36         O  0.07486069  0.35830814  0.86731438    -0.72300
V37         V  0.10333970  0.27128492  0.89211295     1.35200
V38         V  0.13295376  0.33025587  0.87201813     1.35200
C39         C  0.03916098  0.33748185  0.87676883     0.77100
C40         C  0.19777021  0.26498088  0.88739373     0.77200
C41         C  0.12684970  0.33370236  0.94092249     0.77100
C42         C  0.11061059  0.26655300  0.82356461     0.77000
O43         O  0.86231103  0.47412182  0.89771399    -0.72100
O44         O  0.80660997  0.59146203  0.91199642    -0.72300
O45         O  0.80659175  0.53013060  0.86188581    -0.72200
O46         O  0.86137813  0.53598365  0.94825833    -0.72200
O47         O  0.92189973  0.56724801  0.92657997    -0.72200
O48         O  0.86564246  0.56520983  0.84094642    -0.72200
O49         O  0.86780153  0.62401642  0.89215251    -0.72100
O50         O  0.92046560  0.50851916  0.87475548    -0.72300
V51         V  0.83533947  0.53339079  0.90460993     1.35200
V52         V  0.89278885  0.56542840  0.88409417     1.35200
C53         C  0.90087191  0.47173137  0.88309116     0.77100
C54         C  0.82789945  0.62777686  0.90408884     0.77200
C55         C  0.82643394  0.54750414  0.83673677     0.77100
C56         C  0.90068204  0.55362829  0.95232740     0.77000
O57         O  0.53205227  0.29863744  0.63045120    -0.72100
O58         O  0.41425115  0.24261065  0.61882229    -0.72300
O59         O  0.46802582  0.29795216  0.58190810    -0.72200
O60         O  0.47845767  0.24198507  0.66696895    -0.72200
O61         O  0.44630147  0.30138445  0.69011263    -0.72200
O62         O  0.43441927  0.35707821  0.60423070    -0.72200
O63         O  0.38217577  0.30194562  0.64191723    -0.72100
O64         O  0.49814030  0.35744285  0.65322041    -0.72300
V65         V  0.47263097  0.27145501  0.62495549     1.35200
V66         V  0.44101948  0.32836152  0.64688517     1.35200
C67         C  0.53478385  0.33771461  0.64431237     0.77100
C68         C  0.37802722  0.26276168  0.62873865     0.77200
C69         C  0.44856385  0.33641037  0.57824113     0.77100
C70         C  0.46388231  0.26175034  0.69304801     0.77000
O71         O  0.71230723  0.47766058  0.64068048    -0.72100
O72         O  0.76702342  0.59606528  0.63354637    -0.72300
O73         O  0.76221069  0.53246454  0.68161071    -0.72200
O74         O  0.71840035  0.54168124  0.59273490    -0.72200
O75         O  0.65452604  0.57097341  0.61079449    -0.72200
O76         O  0.70055707  0.56593229  0.70022537    -0.72200
O77         O  0.70321740  0.62735278  0.65008287    -0.72100
O78         O  0.65086829  0.50960449  0.66111657    -0.72300
V79         V  0.73876084  0.53746697  0.63758581     1.35200
V80         V  0.67844313  0.56773753  0.65522978     1.35200
C81         C  0.67186232  0.47373542  0.65194848     0.77100
C82         C  0.74417504  0.63197403  0.64026906     0.77200
C83         C  0.73973740  0.54868645  0.70600152     0.77100
C84         C  0.67926757  0.55818711  0.58632710     0.77000
O85         O  0.71087298  0.96269025  0.89628017    -0.72100
O86         O  0.77094034  0.84684334  0.90695812    -0.72300
O87         O  0.76695547  0.91021225  0.85828065    -0.72200
O88         O  0.71640708  0.89911414  0.94506915    -0.72200
O89         O  0.65729654  0.86363815  0.92486506    -0.72200
O90         O  0.70708254  0.87666789  0.83712231    -0.72200
O91         O  0.71139145  0.81310071  0.88566523    -0.72100
O92         O  0.65166622  0.92691947  0.87607145    -0.72300
V93         V  0.74014569  0.90419301  0.90121055     1.35200
V94         V  0.68299460  0.87090344  0.88130298     1.35200
C95         C  0.67082847  0.96412463  0.88395085     0.77100
C96         C  0.75078273  0.81007715  0.89854316     0.77200
C97         C  0.74610156  0.89495935  0.83292781     0.77100
C98         C  0.67916777  0.87805334  0.95014433     0.77000
O99         O  0.53044134  0.14184987  0.89085900    -0.72100
O100        O  0.41348037  0.20080401  0.89483293    -0.72300
O101        O  0.46287141  0.14801798  0.93615662    -0.72200
O102        O  0.48097267  0.19590461  0.84927432    -0.72200
O103        O  0.44601505  0.13713322  0.82775412    -0.72200
O104        O  0.43405735  0.08581943  0.91518306    -0.72200
O105        O  0.38154830  0.13866465  0.87600040    -0.72100
O106        O  0.49828648  0.08324794  0.86676236    -0.72300
V107        V  0.47143143  0.17049093  0.89228732     1.35200
V108        V  0.44069572  0.11233106  0.87177869     1.35200
C109        C  0.53399121  0.10217950  0.87812306     0.77100
C110        C  0.37737994  0.17913808  0.88693063     0.77200
C111        C  0.44538709  0.10887902  0.94078393     0.77100
C112        C  0.46520292  0.17576796  0.82375512     0.77000
O113        O  0.36052469  0.46257692  0.38995336    -0.72100
O114        O  0.30706865  0.34404449  0.39984741    -0.72300
O115        O  0.35943783  0.39878312  0.43808874    -0.72200
O116        O  0.30687302  0.40722591  0.35147978    -0.72200
O117        O  0.36781706  0.37544199  0.33014913    -0.72200
O118        O  0.42097035  0.36833239  0.41686738    -0.72200
O119        O  0.36880523  0.31315945  0.37924660    -0.72100
O120        O  0.42070232  0.43071849  0.36749782    -0.72300
V121        V  0.33463805  0.40270967  0.39435536     1.35200
V122        V  0.39339103  0.37266693  0.37382785     1.35200
C123        C  0.40035706  0.46646735  0.37757551     0.77100
C124        C  0.32897765  0.30833522  0.39121368     0.77200
C125        C  0.39885458  0.38153460  0.44243510     0.77100
C126        C  0.32776522  0.39145225  0.32619655     0.77000
O127        O  0.54496036  0.63754599  0.39659470    -0.72100
O128        O  0.66342212  0.69141129  0.40651537    -0.72300
O129        O  0.60008022  0.69035546  0.35823788    -0.72200
O130        O  0.60893265  0.63948154  0.44516904    -0.72200
O131        O  0.64119991  0.57837264  0.42457755    -0.72200
O132        O  0.63124106  0.62913073  0.33697366    -0.72200
O133        O  0.69454510  0.63017296  0.38538468    -0.72100
O134        O  0.57722745  0.57668657  0.37541884    -0.72300
V135        V  0.60481902  0.66344792  0.40121701     1.35200
V136        V  0.63522745  0.60463779  0.38106058     1.35200
C137        C  0.54117422  0.59792303  0.38387584     0.77100
C138        C  0.69921667  0.67008884  0.39726854     0.77200
C139        C  0.61541644  0.66925425  0.33294095     0.77100
C140        C  0.62779239  0.60095063  0.44992726     0.77000
O141        O  0.03974367  0.64081859  0.13672432    -0.72100
O142        O  0.92028643  0.69339118  0.12955080    -0.72300
O143        O  0.98688597  0.69580993  0.17564159    -0.72200
O144        O  0.97260898  0.63928097  0.09074216    -0.72200
O145        O  0.94235148  0.57940027  0.11406581    -0.72200
O146        O  0.95845646  0.63514878  0.19943080    -0.72200
O147        O  0.89138608  0.63332800  0.15365987    -0.72100
O148        O  0.00927830  0.58097045  0.16033204    -0.72300
V149        V  0.97943304  0.66617324  0.13363179     1.35200
V150        V  0.95107676  0.60837184  0.15640784     1.35200
C151        C  0.04446416  0.60155219  0.14975447     0.77100
C152        C  0.88542734  0.67210783  0.14036692     0.77200
C153        C  0.97462311  0.67528000  0.20199994     0.77100
C154        C  0.95402786  0.60027647  0.08766156     0.77000
O155        O  0.21306053  0.45691364  0.12986141    -0.72100
O156        O  0.26684318  0.33836544  0.12195083    -0.72300
O157        O  0.21548767  0.39180499  0.08214533    -0.72200
O158        O  0.26491106  0.40324586  0.16936961    -0.72200
O159        O  0.20579524  0.36803755  0.19000300    -0.72200
O160        O  0.15216583  0.36515843  0.10312945    -0.72200
O161        O  0.20337767  0.30744942  0.13934298    -0.72100
O162        O  0.15405972  0.42571061  0.15414417    -0.72300
V163        V  0.23890421  0.39703611  0.12620247     1.35200
V164        V  0.17989936  0.36731929  0.14622251     1.35200
C165        C  0.17477196  0.46132249  0.14443099     0.77100
C166        C  0.24403980  0.30268016  0.12897747     0.77200
C167        C  0.17549853  0.37622498  0.07763611     0.77100
C168        C  0.24475067  0.38631805  0.19448003     0.77000
O169        O  0.37216124  0.97170232  0.12976274    -0.72100
O170        O  0.31048183  0.08748200  0.12171322    -0.72300
O171        O  0.36576357  0.03715818  0.08218939    -0.72200
O172        O  0.31545369  0.02231546  0.16917974    -0.72200
O173        O  0.37454644  0.05675985  0.19054899    -0.72200
O174        O  0.42494621  0.07171563  0.10333566    -0.72200
O175        O  0.37021508  0.12081467  0.14300736    -0.72100
O176        O  0.43052918  0.00730224  0.15140714    -0.72300
V177        V  0.34209234  0.03013918  0.12611773     1.35200
V178        V  0.39893192  0.06326398  0.14662353     1.35200
C179        C  0.41198623  0.97016855  0.14251469     0.77100
C180        C  0.33048190  0.12407593  0.13084206     0.77200
C181        C  0.40309530  0.05836944  0.07775257     0.77100
C182        C  0.33586964  0.03781579  0.19472730     0.77000
O183        O  0.55189266  0.79143560  0.13594506    -0.72100
O184        O  0.66934466  0.73329053  0.13034242    -0.72300
O185        O  0.60247615  0.73582733  0.17629832    -0.72200
O186        O  0.61903106  0.78750300  0.09014815    -0.72200
O187        O  0.64799153  0.84889029  0.11253034    -0.72200
O188        O  0.63727288  0.79412624  0.19854301    -0.72200
O189        O  0.70086635  0.79503559  0.15029428    -0.72100
O190        O  0.58408683  0.84923326  0.16097321    -0.72300
V191        V  0.61115249  0.76311887  0.13366391     1.35200
V192        V  0.64174740  0.82068705  0.15519952     1.35200
C193        C  0.54833691  0.83079012  0.14925675     0.77100
C194        C  0.70521721  0.75487978  0.13890363     0.77200
C195        C  0.61878557  0.75508546  0.20202856     0.77100
C196        C  0.63663258  0.82679621  0.08654096     0.77000
O197        O  0.02915548  0.79946298  0.39714167    -0.72100
O198        O  0.91579618  0.73493278  0.40399869    -0.72300
O199        O  0.98135520  0.74272118  0.35718661    -0.72200
O200        O  0.96389470  0.79136209  0.44434754    -0.72200
O201        O  0.93082046  0.85150073  0.42323730    -0.72200
O202        O  0.94232970  0.79930349  0.33624631    -0.72200
O203        O  0.87974968  0.79525395  0.38566667    -0.72100
O204        O  0.99272025  0.85592789  0.37352259    -0.72300
V205        V  0.97185407  0.76820198  0.40031666     1.35200
V206        V  0.93713722  0.82437822  0.38010268     1.35200
C207        C  0.03003317  0.83853292  0.38337749     0.77100
C208        C  0.87846798  0.75446796  0.39613688     0.77200
C209        C  0.96458112  0.76239505  0.33180410     0.77100
C210        C  0.94482328  0.82993162  0.44876835     0.77000
O211        O  0.20836745  0.97530223  0.38884732    -0.72100
O212        O  0.26970692  0.09018023  0.39828587    -0.72300
O213        O  0.21261318  0.04029482  0.43655762    -0.72200
O214        O  0.26640077  0.02534820  0.35051801    -0.72200
O215        O  0.20802512  0.05993134  0.32792398    -0.72200
O216        O  0.15425145  0.07495050  0.41416123    -0.72200
O217        O  0.21078199  0.12430464  0.37609832    -0.72100
O218        O  0.15083845  0.01092461  0.36594005    -0.72300
V219        V  0.23818666  0.03331988  0.39307179     1.35200
V220        V  0.18214901  0.06673735  0.37145305     1.35200
C221        C  0.16879344  0.97394370  0.37580764     0.77100
C222        C  0.25018758  0.12689970  0.38900591     0.77200
C223        C  0.17472907  0.06105609  0.44018497     0.77100
C224        C  0.24665842  0.04044174  0.32458532     0.77000
C225        C  0.07591842  0.89239432  0.35016497    -0.26700
C226        C  0.07274414  0.86463342  0.37866651    -0.14700
C227        C  0.10706151  0.86721916  0.40352860     0.35900
C228        C  0.14197277  0.90038664  0.40043783    -0.26100
C229        C  0.14195760  0.93132845  0.37353280    -0.15300
C230        C  0.10994283  0.92578038  0.34748008     0.37000
N231        N  0.11071656  0.95537554  0.31885924    -0.89600
H232        H  0.05025335  0.88988517  0.33060291     0.18100
H233        H  0.16662368  0.90475672  0.42048193     0.18100
N234        N  0.10452578  0.83871720  0.43279040    -0.88600
H235        H  0.07909137  0.97236400  0.31749623     0.35500
H236        H  0.11418773  0.93494331  0.29746302     0.40600
H237        H  0.07519767  0.84846369  0.44617239     0.40200
H238        H  0.13252727  0.84488052  0.44852051     0.35100
C239        C  0.26638860  0.02790761  0.23083125    -0.26700
C240        C  0.31404552  0.03533774  0.22838235    -0.14700
C241        C  0.33941222  0.04229962  0.25807006     0.35900
C242        C  0.31689294  0.04249438  0.28917284    -0.26100
C243        C  0.26914941  0.03674961  0.29141424    -0.15300
C244        C  0.24381614  0.02891522  0.26194889     0.37000
N245        N  0.19526015  0.02137281  0.26354443    -0.89600
H246        H  0.24621035  0.02234507  0.20842492     0.18100
H247        H  0.33679315  0.04849583  0.31166255     0.18100
N248        N  0.38806889  0.04925791  0.25688780    -0.88600
H249        H  0.18836904  0.98917424  0.25309305     0.35500
H250        H  0.17912533  0.04623090  0.24879112     0.40600
H251        H  0.40375109  0.02369742  0.27125752     0.40200
H252        H  0.39525085  0.08102163  0.26792785     0.35100
C253        C  0.44125503  0.89455275  0.12133977    -0.26700
C254        C  0.43776228  0.92694931  0.14729569    -0.14700
C255        C  0.46486937  0.92148765  0.17617920     0.35900
C256        C  0.49783580  0.88664776  0.17747958    -0.26100
C257        C  0.50471711  0.85690271  0.15032075    -0.15300
C258        C  0.47472580  0.85935428  0.12254406     0.37000
N259        N  0.48078229  0.82877111  0.09462143    -0.89600
H260        H  0.42031009  0.89871118  0.09915264     0.18100
H261        H  0.52011194  0.88460528  0.19915411     0.18100
N262        N  0.46016029  0.95255778  0.20384441    -0.88600
H263        H  0.45736172  0.83656175  0.07563528     0.35500
H264        H  0.47273037  0.79568903  0.10283413     0.40600
H265        H  0.49188177  0.96841518  0.20784056     0.40200
H266        H  0.45214158  0.93338419  0.22514735     0.35100
C267        C  0.26100206  0.17340505  0.12271465    -0.26700
C268        C  0.30857019  0.16986703  0.12795122    -0.14700
C269        C  0.33468440  0.21055235  0.13149705     0.35900
C270        C  0.31288455  0.25328979  0.13068466    -0.26100
C271        C  0.26530003  0.25677935  0.12666489    -0.15300
C272        C  0.23915334  0.21646753  0.12221029     0.37000
N273        N  0.19056266  0.21905937  0.11693248    -0.89600
H274        H  0.24047693  0.14268023  0.11970216     0.18100
H275        H  0.33339507  0.28395403  0.13417976     0.18100
N276        N  0.38348403  0.20893667  0.13603736    -0.88600
H277        H  0.17438015  0.20012048  0.13574316     0.35500
H278        H  0.18317624  0.20349712  0.09396620     0.40600
H279        H  0.39132946  0.22525699  0.15864671     0.40200
H280        H  0.39884705  0.22749497  0.11666653     0.35100
C281        C  0.83436053  0.73972585  0.13310035    -0.26700
C282        C  0.83891662  0.69228344  0.13806342    -0.14700
C283        C  0.79894522  0.66519499  0.14150715     0.35900
C284        C  0.75555875  0.68606942  0.14054109    -0.26100
C285        C  0.75117154  0.73367145  0.13667882    -0.15300
C286        C  0.79102055  0.76061979  0.13255836     0.37000
N287        N  0.78771911  0.80921701  0.12756698    -0.89600
H288        H  0.86460356  0.76101474  0.13028426     0.18100
H289        H  0.72522618  0.66502087  0.14379816     0.18100
N290        N  0.80206233  0.61647929  0.14594001    -0.88600
H291        H  0.80351311  0.81710793  0.10478705     0.35500
H292        H  0.80611573  0.82550193  0.14664018     0.40600
H293        H  0.78407383  0.60064562  0.12646556     0.40200
H294        H  0.78582862  0.60808412  0.16845926     0.35100
C295        C  0.96598185  0.74519408  0.23719175    -0.26700
C296        C  0.97699155  0.69836091  0.23486731    -0.14700
C297        C  0.98702158  0.67370514  0.26420811     0.35900
C298        C  0.98387306  0.69556893  0.29541321    -0.26100
C299        C  0.97041576  0.74185491  0.29803642    -0.15300
C300        C  0.96230443  0.76704775  0.26843979     0.37000
N301        N  0.95023072  0.81471872  0.26986845    -0.89600
H302        H  0.95850156  0.76458558  0.21471509     0.18100
H303        H  0.99100603  0.67574659  0.31773679     0.18100
N304        N  0.00076297  0.62650277  0.26239651    -0.88600
H305        H  0.91846669  0.81891806  0.25806638     0.35500
H306        H  0.97473219  0.83315041  0.25629095     0.40600
H307        H  0.97761198  0.60717302  0.27654822     0.40200
H308        H  0.03319214  0.62346961  0.27340292     0.35100
C309        C  0.09681167  0.55084875  0.18028953    -0.26700
C310        C  0.08890866  0.57792496  0.15192459    -0.14700
C311        C  0.11754440  0.57309235  0.12373193     0.35900
C312        C  0.14998282  0.53732229  0.12286606    -0.26100
C313        C  0.15314307  0.50632670  0.14960943    -0.15300
C314        C  0.12863627  0.51487969  0.17939442     0.37000
N315        N  0.13408425  0.48509135  0.20779505    -0.89600
H316        H  0.07531264  0.55533793  0.20223108     0.18100
H317        H  0.16928554  0.53112255  0.10009119     0.18100
N318        N  0.11079971  0.60141326  0.09489207    -0.88600
H319        H  0.11299627  0.49572352  0.22755160     0.35500
H320        H  0.16796481  0.48827320  0.21611705     0.40600
H321        H  0.10274366  0.58012927  0.07463854     0.40200
H322        H  0.14188340  0.61777672  0.08957340     0.35100
C323        C  0.78288514  0.66814880  0.38421059    -0.26700
C324        C  0.74553998  0.69112329  0.39923801    -0.14700
C325        C  0.75313173  0.73418999  0.41454814     0.35900
C326        C  0.79713883  0.75366685  0.41388944    -0.26100
C327        C  0.83405109  0.73076655  0.39863414    -0.15300
C328        C  0.82676299  0.68752894  0.38364557     0.37000
N329        N  0.86264359  0.66364862  0.36621026    -0.89600
H330        H  0.77788785  0.63528632  0.37200005     0.18100
H331        H  0.80245862  0.78707457  0.42524727     0.18100
N332        N  0.71642566  0.75849036  0.43066204    -0.88600
H333        H  0.88905511  0.65641720  0.38308360     0.35500
H334        H  0.87546682  0.68509497  0.34744526     0.40600
H335        H  0.71297108  0.79049271  0.41910569     0.40200
H336        H  0.72566148  0.76402264  0.45562050     0.35100
C337        C  0.60754203  0.66504115  0.27097096    -0.26700
C338        C  0.61586899  0.69152349  0.29966945    -0.14700
C339        C  0.62635698  0.73871644  0.29592699     0.35900
C340        C  0.62687223  0.75842952  0.26405399    -0.26100
C341        C  0.61718923  0.73238636  0.23532447    -0.15300
C342        C  0.60805244  0.68493645  0.23895110     0.37000
N343        N  0.60028302  0.65646913  0.21025029    -0.89600
H344        H  0.60036781  0.62868327  0.27338519     0.18100
H345        H  0.63500470  0.79459403  0.26184128     0.18100
N346        N  0.63843414  0.76722641  0.32382023    -0.88600
H347        H  0.56806394  0.64108475  0.21284532     0.35500
H348        H  0.62511142  0.63046801  0.21010987     0.40600
H349        H  0.66588169  0.75200314  0.33654482     0.40200
H350        H  0.61024965  0.76987041  0.33989664     0.35100
C351        C  0.33771386  0.22325992  0.39119393    -0.26700
C352        C  0.30878739  0.26188224  0.39410662    -0.14700
C353        C  0.26110208  0.25524669  0.39769528     0.35900
C354        C  0.24321492  0.21072018  0.39706396    -0.26100
C355        C  0.27187773  0.17230906  0.39285486    -0.15300
C356        C  0.31976482  0.17850203  0.39039846     0.37000
N357        N  0.34979549  0.13970580  0.38589606    -0.89600
H358        H  0.37445125  0.22799628  0.38866785     0.18100
H359        H  0.20637660  0.20626189  0.39928905     0.18100
N360        N  0.23039206  0.29351571  0.40083843    -0.88600
H361        H  0.38406762  0.15027388  0.38488590     0.35500
H362        H  0.34238400  0.12512906  0.36258724     0.40600
H363        H  0.21208274  0.28986172  0.42319486     0.40200
H364        H  0.20695890  0.29219033  0.38104994     0.35100
C365        C  0.23945528  0.37984798  0.25672276    -0.26700
C366        C  0.26647991  0.38765458  0.22812082    -0.14700
C367        C  0.31408390  0.39623108  0.23211815     0.35900
C368        C  0.33303805  0.39788791  0.26441308    -0.26100
C369        C  0.30583763  0.39088625  0.29285238    -0.15300
C370        C  0.25871245  0.38130128  0.28891952     0.37000
N371        N  0.23061337  0.37148923  0.31746879    -0.89600
H372        H  0.20313741  0.37257739  0.25416934     0.18100
H373        H  0.36940678  0.40457107  0.26742123     0.18100
N374        N  0.34332960  0.40248246  0.20347106    -0.88600
H375        H  0.21690152  0.33857693  0.31446864     0.35500
H376        H  0.20336524  0.39492434  0.31781750     0.40600
H377        H  0.34460311  0.37121383  0.19058763     0.40200
H378        H  0.37700439  0.40966565  0.21085653     0.35100
C379        C  0.45088620  0.52066479  0.34788926    -0.26700
C380        C  0.42503980  0.51055730  0.37654559    -0.14700
C381        C  0.43158868  0.53671196  0.40595653     0.35900
C382        C  0.46734925  0.56924771  0.40705533    -0.26100
C383        C  0.49635233  0.57543385  0.37939507    -0.15300
C384        C  0.48634025  0.55298885  0.34908792     0.37000
N385        N  0.51350955  0.56162879  0.31986204    -0.89600
H386        H  0.44562602  0.50109983  0.32510903     0.18100
H387        H  0.47506868  0.58676264  0.43032373     0.18100
N388        N  0.40514177  0.52690389  0.43546790    -0.88600
H389        H  0.49157063  0.57314282  0.30093957     0.35500
H390        H  0.52807464  0.53056218  0.31203900     0.40600
H391        H  0.37107610  0.53593708  0.43044915     0.40200
H392        H  0.41574311  0.54763239  0.45539337     0.35100
C393        C  0.45319343  0.11997848  0.00221682    -0.26700
C394        C  0.43782050  0.09219558  0.97562118    -0.14700
C395        C  0.41390571  0.05119331  0.98340768     0.35900
C396        C  0.40496330  0.04007432  0.01689704    -0.26100
C397        C  0.41906870  0.06873373  0.04328298    -0.15300
C398        C  0.44398555  0.10903007  0.03558674     0.37000
N399        N  0.45846944  0.14087519  0.06081460    -0.89600
H400        H  0.47160463  0.15152073  0.99716806     0.18100
H401        H  0.38578756  0.00908677  0.02228156     0.18100
N402        N  0.39721019  0.02058297  0.95813504    -0.91800
H403        H  0.48134676  0.12429341  0.07691307     0.35500
H404        H  0.42968333  0.15189107  0.07431083     0.40600
H405        H  0.42498317  0.00912282  0.94375678     0.40200
H406        H  0.37398301  0.03828558  0.94293939     0.35100
C407        C  0.69216464  0.88414858  0.01145012    -0.26700
C408        C  0.66387786  0.86893430  0.98510431    -0.14700
C409        C  0.62433542  0.84275766  0.99313185     0.35900
C410        C  0.61527092  0.83138666  0.02651861    -0.26100
C411        C  0.64464137  0.84515107  0.05250801    -0.15300
C412        C  0.68323541  0.87248881  0.04471836     0.37000
N413        N  0.71545198  0.88693956  0.06966059    -0.89600
H414        H  0.72269188  0.90411589  0.00620982     0.18100
H415        H  0.58542668  0.81054635  0.03209833     0.18100
N416        N  0.59317914  0.82623050  0.96818262    -0.88600
H417        H  0.72814567  0.85790542  0.08192988     0.35500
H418        H  0.69852396  0.90802257  0.08690842     0.40600
H419        H  0.61078496  0.80398065  0.95210063     0.40200
H420        H  0.58046637  0.85422171  0.95469616     0.35100
C421        C  0.58705127  0.04979506  0.84886980    -0.26700
C422        C  0.57775534  0.07661852  0.87722336    -0.14700
C423        C  0.60561446  0.07192267  0.90593657     0.35900
C424        C  0.63944317  0.03720567  0.90667314    -0.26100
C425        C  0.64527581  0.00734908  0.87938621    -0.15300
C426        C  0.62030994  0.01533182  0.84962755     0.37000
N427        N  0.62730504  0.98836924  0.81998132    -0.89600
H428        H  0.56633090  0.05381704  0.82653155     0.18100
H429        H  0.65870563  0.03116569  0.92943816     0.18100
N430        N  0.59681598  0.09949593  0.93511647    -0.88600
H431        H  0.61753473  0.95447990  0.82450740     0.35500
H432        H  0.66223541  0.98904150  0.81389187     0.40600
H433        H  0.60482997  0.13345129  0.92905457     0.40200
H434        H  0.61886632  0.09015779  0.95459572     0.35100
C435        C  0.62238093  0.58744781  0.54457445    -0.26700
C436        C  0.66369476  0.56402458  0.55103624    -0.14700
C437        C  0.69063221  0.54906657  0.52354921     0.35900
C438        C  0.67670424  0.55907413  0.49073532    -0.26100
C439        C  0.63671396  0.58452579  0.48445538    -0.15300
C440        C  0.60867409  0.59793944  0.51167422     0.37000
N441        N  0.56664898  0.62265698  0.50585577    -0.89600
H442        H  0.60117096  0.59878045  0.56529951     0.18100
H443        H  0.69862868  0.54873183  0.47010531     0.18100
N444        N  0.73284515  0.52469969  0.52864127    -0.88600
H445        H  0.55024128  0.63032328  0.52847947     0.35500
H446        H  0.54464389  0.60088955  0.49261596     0.40600
H447        H  0.75936114  0.54356760  0.51762409     0.40200
H448        H  0.73061675  0.49314511  0.51623094     0.35100
C449        C  0.46515396  0.33499243  0.51709340    -0.26700
C450        C  0.44085881  0.35468406  0.54398609    -0.14700
C451        C  0.40648427  0.38751893  0.53705543     0.35900
C452        C  0.39497415  0.39746911  0.50372444    -0.26100
C453        C  0.41716976  0.37539344  0.47684514    -0.15300
C454        C  0.45374113  0.34499133  0.48378692     0.37000
N455        N  0.47820080  0.32254152  0.45726030    -0.89600
H456        H  0.49220184  0.31023070  0.52183814     0.18100
H457        H  0.36732373  0.42154677  0.49896520     0.18100
N458        N  0.38164064  0.40939220  0.56363057    -0.88600
H459        H  0.47471785  0.28706980  0.46035158     0.35500
H460        H  0.51300736  0.33069891  0.45959559     0.40600
H461        H  0.34677944  0.40184272  0.56069397     0.40200
H462        H  0.38572060  0.44488968  0.56116206     0.35100
C463        C  0.46712519  0.17055280  0.76131355    -0.26700
C464        C  0.46783991  0.19778045  0.79033240    -0.14700
C465        C  0.46919076  0.24607962  0.78700254     0.35900
C466        C  0.46825943  0.26609916  0.75512031    -0.26100
C467        C  0.46687396  0.23897230  0.72613186    -0.15300
C468        C  0.46717986  0.19063712  0.72934944     0.37000
N469        N  0.46630610  0.16173221  0.70031162    -0.89600
H470        H  0.46641509  0.13346019  0.76339835     0.18100
H471        H  0.46854792  0.30321047  0.75309633     0.18100
N472        N  0.47013103  0.27517358  0.81593623    -0.88600
H473        H  0.43711928  0.14096091  0.70167562     0.35500
H474        H  0.49523562  0.14041663  0.70099809     0.40600
H475        H  0.44135825  0.29669020  0.81517508     0.40200
H476        H  0.49948038  0.29571523  0.81451051     0.35100
C477        C  0.60975301  0.36709896  0.62312955    -0.26700
C478        C  0.57884626  0.36158980  0.64977300    -0.14700
C479        C  0.58590430  0.38615955  0.67977845     0.35900
C480        C  0.61996568  0.42008459  0.68104974    -0.26100
C481        C  0.64761315  0.42928542  0.65313705    -0.15300
C482        C  0.64435992  0.40089131  0.62454683     0.37000
N483        N  0.67310251  0.40938060  0.59597378    -0.89600
H484        H  0.60445041  0.34788955  0.60021608     0.18100
H485        H  0.62311979  0.44137841  0.70320918     0.18100
N486        N  0.55668928  0.37814646  0.70821408    -0.88600
H487        H  0.66488484  0.38691404  0.57645299     0.35500
H488        H  0.70687244  0.40174164  0.60290466     0.40600
H489        H  0.56613433  0.39924543  0.72824910     0.40200
H490        H  0.56213210  0.34431238  0.71600715     0.35100
C491        C  0.83641791  0.71223002  0.90813483    -0.26700
C492        C  0.80708443  0.67393006  0.90707762    -0.14700
C493        C  0.75919761  0.68082006  0.90550895     0.35900
C494        C  0.74196065  0.72579248  0.90405746    -0.26100
C495        C  0.77139222  0.76409359  0.90365800    -0.15300
C496        C  0.81919272  0.75722290  0.90652202     0.37000
N497        N  0.85026169  0.79552990  0.90628866    -0.89600
H498        H  0.87323086  0.70702286  0.90953816     0.18100
H499        H  0.70516192  0.73086550  0.90230358     0.18100
N500        N  0.72829721  0.64239670  0.90397746    -0.88600
H501        H  0.88435708  0.78417720  0.90612421     0.35500
H502        H  0.84580020  0.81325222  0.92883208     0.40600
H503        H  0.73387092  0.62566796  0.88114693     0.40200
H504        H  0.69414975  0.65358619  0.90369729     0.35100
C505        C  0.89952220  0.53721391  0.01372467    -0.26700
C506        C  0.91992080  0.56024615  0.98657723    -0.14700
C507        C  0.95539770  0.59225490  0.99336585     0.35900
C508        C  0.96752439  0.60203234  0.02642163    -0.26100
C509        C  0.94496753  0.58149453  0.05360889    -0.15300
C510        C  0.91147451  0.54739753  0.04693606     0.37000
N511        N  0.88753034  0.52385932  0.07309236    -0.89600
H512        H  0.87274683  0.51215768  0.00923246     0.18100
H513        H  0.99380282  0.62765666  0.03079948     0.18100
N514        N  0.97844391  0.61733938  0.96754975    -0.88600
H515        H  0.87003675  0.54797919  0.08776264     0.35500
H516        H  0.91150416  0.50644851  0.08784752     0.40600
H517        H  0.95427958  0.63656114  0.95421335     0.40200
H518        H  0.99490772  0.59412312  0.95154793     0.35100
C519        C  0.75602011  0.54504184  0.80084337    -0.26700
C520        C  0.80417393  0.54764390  0.80329963    -0.14700
C521        C  0.83036171  0.55094922  0.77370312     0.35900
C522        C  0.80837153  0.55115802  0.74255453    -0.26100
C523        C  0.76035720  0.54854205  0.73995824    -0.15300
C524        C  0.73378684  0.54565667  0.76947946     0.37000
N525        N  0.68458536  0.54269184  0.76756835    -0.89600
H526        H  0.73562098  0.54282346  0.82347176     0.18100
H527        H  0.82921375  0.55373630  0.72014639     0.18100
N528        N  0.87947891  0.55326704  0.77499943    -0.88600
H529        H  0.67023321  0.54115922  0.79153361     0.35500
H530        H  0.67651237  0.51167454  0.75575478     0.40600
H531        H  0.88980973  0.58352938  0.76315865     0.40200
H532        H  0.89279093  0.52551336  0.76144829     0.35100
C533        C  0.24799861  0.19619330  0.89294678    -0.26700
C534        C  0.24427306  0.24409028  0.88973018    -0.14700
C535        C  0.28515615  0.27055112  0.88810126     0.35900
C536        C  0.32788984  0.24864001  0.88830328    -0.26100
C537        C  0.33144113  0.20071857  0.88980601    -0.15300
C538        C  0.29103408  0.17420973  0.89310085     0.37000
N539        N  0.29373379  0.12514267  0.89670412    -0.89600
H540        H  0.21715415  0.17559406  0.89476611     0.18100
H541        H  0.35863423  0.26938430  0.88627176     0.18100
N542        N  0.28482548  0.31969258  0.88643251    -0.88600
H543        H  0.26091468  0.11084164  0.89852466     0.35500
H544        H  0.31023987  0.11832320  0.91939245     0.40600
H545        H  0.26594386  0.33259220  0.90665370     0.40200
H546        H  0.26972248  0.32993456  0.86394928     0.35100
C547        C  0.17662472  0.39524850  0.01687020    -0.26700
C548        C  0.15783029  0.36936770  0.04318486    -0.14700
C549        C  0.12548495  0.33474537  0.03572027     0.35900
C550        C  0.11386209  0.32599331  0.00220286    -0.26100
C551        C  0.13454637  0.35013101  0.97573315    -0.15300
C552        C  0.16534073  0.38600805  0.98336532     0.37000
N553        N  0.18665541  0.41207317  0.95728380    -0.89600
H554        H  0.20128916  0.42209277  0.02223569     0.18100
H555        H  0.08989361  0.29859812  0.99671396     0.18100
N556        N  0.10624016  0.30693719  0.06190887    -0.88600
H557        H  0.22224536  0.40823180  0.95944957     0.35500
H558        H  0.17866896  0.44671395  0.96110207     0.40600
H559        H  0.13288709  0.28717034  0.07194790     0.40200
H560        H  0.08234658  0.28371573  0.05220488     0.35100
C561        C  0.98720205  0.39035684  0.84709835    -0.26700
C562        C  0.99441532  0.36110584  0.87441797    -0.14700
C563        C  0.96283245  0.36133355  0.90126221     0.35900
C564        C  0.92814554  0.39515063  0.90217930    -0.26100
C565        C  0.92483952  0.42800613  0.87667863    -0.15300
C566        C  0.95232702  0.42349169  0.84777758     0.37000
N567        N  0.94641555  0.45451939  0.82012988    -0.89600
H568        H  0.01067014  0.38919456  0.82602921     0.18100
H569        H  0.90650818  0.39838956  0.92413702     0.18100
N570        N  0.96865131  0.33023978  0.92880969    -0.88600
H571        H  0.91358728  0.44904695  0.81032986     0.35500
H572        H  0.96971243  0.44693580  0.80096122     0.40600
H573        H  0.96257544  0.29708810  0.91978531     0.40200
H574        H  0.94380399  0.33639327  0.94719557     0.35100
C575        C  0.29275911  0.27064251  0.62886559    -0.26700
C576        C  0.33151584  0.24185176  0.62575810    -0.14700
C577        C  0.32443690  0.19401904  0.62205672     0.35900
C578        C  0.27968641  0.17646990  0.62191599    -0.26100
C579        C  0.24106842  0.20519817  0.62544982    -0.15300
C580        C  0.24801427  0.25302460  0.62886434     0.37000
N581        N  0.21068364  0.28442192  0.63390665    -0.89600
H582        H  0.29715502  0.30735747  0.63192786     0.18100
H583        H  0.27516068  0.13967614  0.61949086     0.18100
N584        N  0.36173965  0.16204511  0.61962920    -0.88600
H585        H  0.19214451  0.27416560  0.65502864     0.35500
H586        H  0.18926219  0.28334889  0.61296609     0.40600
H587        H  0.38256527  0.16556991  0.64077350     0.40200
H588        H  0.38084151  0.16947940  0.59817103     0.35100
C589        C  0.11576161  0.11931885  0.51409720    -0.26700
C590        C  0.13223388  0.09320518  0.54114955    -0.14700
C591        C  0.15826931  0.05330194  0.53425150     0.35900
C592        C  0.17020746  0.04250555  0.50105861    -0.26100
C593        C  0.15623892  0.07037856  0.47423680    -0.15300
C594        C  0.12761327  0.10862415  0.48084945     0.37000
N595        N  0.11234797  0.13783387  0.45407887    -0.89600
H596        H  0.09508343  0.14958813  0.51890679     0.18100
H597        H  0.19143061  0.01255749  0.49634657     0.18100
N598        N  0.17364617  0.02408800  0.56078075    -0.88600
H599        H  0.14124086  0.15450329  0.44442897     0.35500
H600        H  0.09053836  0.16360230  0.46311908     0.40600
H601        H  0.20949797  0.02238901  0.55982521     0.40200
H602        H  0.16080523  0.99111136  0.55640847     0.35100
C603        C  0.10394356  0.24955529  0.72912786    -0.26700
C604        C  0.10687922  0.20145964  0.72654115    -0.14700
C605        C  0.10843978  0.17494765  0.75607894     0.35900
C606        C  0.10889324  0.19712753  0.78733990    -0.26100
C607        C  0.10763903  0.24523830  0.78989677    -0.15300
C608        C  0.10425900  0.27173463  0.76045288     0.37000
N609        N  0.10095661  0.32093992  0.76240519    -0.89600
H610        H  0.10227820  0.27006199  0.70656597     0.18100
H611        H  0.11100908  0.17663216  0.80988857     0.18100
N612        N  0.10937107  0.12563485  0.75432527    -0.88600
H613        H  0.07000060  0.32894162  0.77438938     0.35500
H614        H  0.09906284  0.33525812  0.73847211     0.40600
H615        H  0.07811002  0.11500141  0.74410075     0.40200
H616        H  0.11111687  0.11137939  0.77828143     0.35100
C617        C  0.83006049  0.72978573  0.63710757    -0.26700
C618        C  0.80109191  0.76842063  0.63560729    -0.14700
C619        C  0.75304345  0.76183731  0.63415924     0.35900
C620        C  0.73535381  0.71688091  0.63485744    -0.26100
C621        C  0.76450155  0.67840653  0.63722262    -0.15300
C622        C  0.81235189  0.68518403  0.63800528     0.37000
N623        N  0.84324893  0.64704063  0.64082440    -0.89600
H624        H  0.86700008  0.73407642  0.63809553     0.18100
H625        H  0.69849655  0.71192680  0.63407800     0.18100
N626        N  0.72231781  0.80051018  0.63279835    -0.88600
H627        H  0.86265729  0.65136120  0.66260113     0.35500
H628        H  0.86566553  0.64779566  0.62037657     0.40600
H629        H  0.72495320  0.81803987  0.65557426     0.40200
H630        H  0.68823453  0.78955120  0.63094253     0.35100
C631        C  0.94789437  0.84496882  0.54343574    -0.26700
C632        C  0.91095756  0.87534885  0.54849361    -0.14700
C633        C  0.88940923  0.89529517  0.52028070     0.35900
C634        C  0.90248718  0.88128595  0.48797844    -0.26100
C635        C  0.93707914  0.84833963  0.48301784    -0.15300
C636        C  0.96148681  0.83158290  0.51105300     0.37000
N637        N  0.99958905  0.80065390  0.50665457    -0.89600
H638        H  0.96542784  0.83042920  0.56484838     0.18100
H639        H  0.88438670  0.89514295  0.46657288     0.18100
N640        N  0.85375494  0.92909060  0.52439486    -0.88600
H641        H  0.01339138  0.79119330  0.52978628     0.35500
H642        H  0.02538106  0.81857150  0.49401866     0.40600
H643        H  0.84090502  0.93949533  0.50118725     0.40200
H644        H  0.86867627  0.95812688  0.53526661     0.35100
C645        C  0.83409962  0.89646429  0.76257564    -0.26700
C646        C  0.80597575  0.90233158  0.73437432    -0.14700
C647        C  0.75799908  0.90657865  0.73894110     0.35900
C648        C  0.73918689  0.90424057  0.77124834    -0.26100
C649        C  0.76729566  0.89798713  0.79933259    -0.15300
C650        C  0.81534871  0.89408721  0.79495659     0.37000
N651        N  0.84484618  0.88636600  0.82325365    -0.89600
H652        H  0.87089514  0.89297913  0.75932690     0.18100
H653        H  0.70231686  0.90731807  0.77436220     0.18100
N654        N  0.72797271  0.91189397  0.71083907    -0.88600
H655        H  0.87922755  0.88461936  0.81575794     0.35500
H656        H  0.83668899  0.85417439  0.83315142     0.40600
H657        H  0.70930573  0.94229060  0.71410010     0.40200
H658        H  0.70478185  0.88452437  0.71082734     0.35100
C659        C  0.95553256  0.02004381  0.67606775    -0.26700
C660        C  0.92622553  0.01395634  0.64862447    -0.14700
C661        C  0.92871236  0.04516934  0.62155458     0.35900
C662        C  0.96337964  0.07870270  0.62112957    -0.26100
C663        C  0.99584882  0.08102248  0.64703422    -0.15300
C664        C  0.99014570  0.05316678  0.67549716     0.37000
N665        N  0.02077596  0.05721061  0.70338798    -0.89600
H666        H  0.95338179  0.99704752  0.69731947     0.18100
H667        H  0.96728348  0.10024629  0.59923489     0.18100
N668        N  0.89907559  0.04134784  0.59311999    -0.88600
H669        H  0.03682531  0.02545009  0.70699538     0.35500
H670        H  0.00120738  0.06455640  0.72469514     0.40600
H671        H  0.86513355  0.04482354  0.60130325     0.40200
H672        H  0.90324760  0.00869933  0.58261817     0.35100
loop_ 
_geom_bond_atom_site_label_1 
_geom_bond_atom_site_label_2 
_geom_bond_distance 
_geom_bond_site_symmetry_2 
_ccdc_geom_bond_type 
O1            V9   1.912       .  S
O1           C11   1.266       .  A
O2            V9   1.909       .  S
O2           C12   1.267       .  A
O3            V9   1.898       .  S
O3           C13   1.264       .  A
O4            V9   1.894       .  S
O4           C14   1.263       .  A
O5           V10   1.906       .  S
O5           C14   1.267       .  A
O6           V10   1.902       .  S
O6           C13   1.266       .  A
O7           V10   1.886       .  S
O7           C12   1.262       .  A
O8           V10   1.884       .  S
O8           C11   1.262       .  A
V9           V10   2.085       .  T
C11         C660   1.477   1_565  S
C12         C618   1.484       .  S
C13         C646   1.485       .  S
C14         C632   1.488       .  S
O15          V23   1.915       .  S
O15          C25   1.267       .  A
O16          V23   1.912       .  S
O16          C26   1.268       .  A
O17          V23   1.897       .  S
O17          C27   1.265       .  A
O18          V23   1.899       .  S
O18          C28   1.264       .  A
O19          V24   1.904       .  S
O19          C28   1.266       .  A
O20          V24   1.908       .  S
O20          C27   1.267       .  A
O21          V24   1.890       .  S
O21          C26   1.262       .  A
O22          V24   1.883       .  S
O22          C25   1.261       .  A
V23          V24   2.085       .  T
C25         C663   1.476   1_455  S
C26         C579   1.486       .  S
C27         C590   1.492       .  S
C28         C604   1.485       .  S
O29          V37   1.908       .  S
O29          C39   1.265       .  A
O30          V37   1.907       .  S
O30          C40   1.268       .  A
O31          V37   1.891       .  S
O31          C41   1.263       .  A
O32          V37   1.895       .  S
O32          C42   1.263       .  A
O33          V38   1.906       .  S
O33          C42   1.266       .  A
O34          V38   1.909       .  S
O34          C41   1.267       .  A
O35          V38   1.889       .  S
O35          C40   1.261       .  A
O36          V38   1.886       .  S
O36          C39   1.262       .  A
V37          V38   2.085       .  T
C39         C562   1.475   1_455  S
C40         C534   1.486       .  S
C41         C551   1.488       .  S
C42         C607   1.483       .  S
O43          V51   1.914       .  S
O43          C53   1.267       .  A
O44          V51   1.907       .  S
O44          C54   1.267       .  A
O45          V51   1.905       .  S
O45          C55   1.266       .  A
O46          V51   1.904       .  S
O46          C56   1.266       .  A
O47          V52   1.899       .  S
O47          C56   1.264       .  A
O48          V52   1.898       .  S
O48          C55   1.265       .  A
O49          V52   1.880       .  S
O49          C54   1.260       .  A
O50          V52   1.878       .  S
O50          C53   1.260       .  A
V51          V52   2.085       .  T
C53         C565   1.473       .  S
C54         C492   1.478       .  S
C55         C520   1.486       .  S
C56         C506   1.492       .  S
O57          V65   1.917       .  S
O57          C67   1.267       .  A
O58          V65   1.913       .  S
O58          C68   1.269       .  A
O59          V65   1.892       .  S
O59          C69   1.263       .  A
O60          V65   1.895       .  S
O60          C70   1.262       .  A
O61          V66   1.905       .  S
O61          C70   1.267       .  A
O62          V66   1.910       .  S
O62          C69   1.267       .  A
O63          V66   1.890       .  S
O63          C68   1.262       .  A
O64          V66   1.885       .  S
O64          C67   1.261       .  A
V65          V66   2.085       .  T
C67         C478   1.477       .  S
C68         C576   1.491       .  S
C69         C450   1.487       .  S
C70         C467   1.483       .  S
O71          V79   1.910       .  S
O71          C81   1.266       .  A
O72          V79   1.903       .  S
O72          C82   1.266       .  A
O73          V79   1.894       .  S
O73          C83   1.264       .  A
O74          V79   1.893       .  S
O74          C84   1.262       .  A
O75          V80   1.911       .  S
O75          C84   1.269       .  A
O76          V80   1.911       .  S
O76          C83   1.267       .  A
O77          V80   1.893       .  S
O77          C82   1.262       .  A
O78          V80   1.890       .  S
O78          C81   1.263       .  A
V79          V80   2.085       .  T
C81         C481   1.477       .  S
C82         C621   1.482       .  S
C83         C523   1.485       .  S
C84         C436   1.492       .  S
O85          V93   1.914       .  S
O85          C95   1.267       .  A
O86          V93   1.908       .  S
O86          C96   1.267       .  A
O87          V93   1.893       .  S
O87          C97   1.262       .  A
O88          V93   1.890       .  S
O88          C98   1.263       .  A
O89          V94   1.906       .  S
O89          C98   1.266       .  A
O90          V94   1.907       .  S
O90          C97   1.267       .  A
O91          V94   1.882       .  S
O91          C96   1.261       .  A
O92          V94   1.879       .  S
O92          C95   1.259       .  A
V93          V94   2.085       .  T
C95         C425   1.473   1_565  S
C96         C495   1.481       .  S
C97         C649   1.480       .  S
C98         C408   1.490       .  S
O99         V107   1.909       .  S
O99         C109   1.265       .  A
O100        V107   1.905       .  S
O100        C110   1.267       .  A
O101        V107   1.889       .  S
O101        C111   1.263       .  A
O102        V107   1.893       .  S
O102        C112   1.263       .  A
O103        V108   1.909       .  S
O103        C112   1.267       .  A
O104        V108   1.910       .  S
O104        C111   1.267       .  A
O105        V108   1.891       .  S
O105        C110   1.262       .  A
O106        V108   1.887       .  S
O106        C109   1.262       .  A
V107        V108   2.084       .  T
C109        C422   1.475       .  S
C110        C537   1.481       .  S
C111        C394   1.492       .  S
C112        C464   1.485       .  S
O113        V121   1.909       .  S
O113        C123   1.266       .  A
O114        V121   1.902       .  S
O114        C124   1.266       .  A
O115        V121   1.895       .  S
O115        C125   1.264       .  A
O116        V121   1.900       .  S
O116        C126   1.264       .  A
O117        V122   1.900       .  S
O117        C126   1.265       .  A
O118        V122   1.903       .  S
O118        C125   1.266       .  A
O119        V122   1.889       .  S
O119        C124   1.262       .  A
O120        V122   1.887       .  S
O120        C123   1.262       .  A
V121        V122   2.086       .  T
C123        C380   1.473       .  S
C124        C352   1.481       .  S
C125        C453   1.486       .  S
C126        C369   1.478       .  S
O127        V135   1.909       .  S
O127        C137   1.265       .  A
O128        V135   1.904       .  S
O128        C138   1.266       .  A
O129        V135   1.894       .  S
O129        C139   1.263       .  A
O130        V135   1.895       .  S
O130        C140   1.263       .  A
O131        V136   1.909       .  S
O131        C140   1.267       .  A
O132        V136   1.906       .  S
O132        C139   1.266       .  A
O133        V136   1.890       .  S
O133        C138   1.262       .  A
O134        V136   1.890       .  S
O134        C137   1.263       .  A
V135        V136   2.086       .  T
C137        C383   1.472       .  S
C138        C324   1.485       .  S
C139        C338   1.481       .  S
C140        C439   1.484       .  S
O141        V149   1.908   1_455  S
O141        C151   1.265       .  A
O142        V149   1.901       .  S
O142        C152   1.266       .  A
O143        V149   1.899       .  S
O143        C153   1.264       .  A
O144        V149   1.894       .  S
O144        C154   1.265       .  A
O145        V150   1.907       .  S
O145        C154   1.265       .  A
O146        V150   1.899       .  S
O146        C153   1.265       .  A
O147        V150   1.886       .  S
O147        C152   1.261       .  A
O148        V150   1.878   1_455  S
O148        C151   1.261       .  A
V149        V150   2.086       .  T
C151        C310   1.467       .  S
C152        C282   1.478       .  S
C153        C296   1.476       .  S
C154        C509   1.490       .  S
O155        V163   1.903       .  S
O155        C165   1.263       .  A
O156        V163   1.898       .  S
O156        C166   1.266       .  A
O157        V163   1.895       .  S
O157        C167   1.263       .  A
O158        V163   1.893       .  S
O158        C168   1.263       .  A
O159        V164   1.906       .  S
O159        C168   1.267       .  A
O160        V164   1.904       .  S
O160        C167   1.266       .  A
O161        V164   1.891       .  S
O161        C166   1.261       .  A
O162        V164   1.884       .  S
O162        C165   1.262       .  A
V163        V164   2.085       .  T
C165        C313   1.467       .  S
C166        C271   1.475       .  S
C167        C548   1.484       .  S
C168        C366   1.487       .  S
O169        V177   1.918   1_565  S
O169        C179   1.268       .  A
O170        V177   1.913       .  S
O170        C180   1.269       .  A
O171        V177   1.897       .  S
O171        C181   1.264       .  A
O172        V177   1.901       .  S
O172        C182   1.265       .  A
O173        V178   1.903       .  S
O173        C182   1.266       .  A
O174        V178   1.904       .  S
O174        C181   1.266       .  A
O175        V178   1.877       .  S
O175        C180   1.259       .  A
O176        V178   1.880       .  S
O176        C179   1.260   1_545  A
V177        V178   2.085       .  T
C179        C254   1.477       .  S
C180        C268   1.482       .  S
C181        C397   1.485       .  S
C182        C240   1.489       .  S
O183        V191   1.913       .  S
O183        C193   1.267       .  A
O184        V191   1.907       .  S
O184        C194   1.267       .  A
O185        V191   1.898       .  S
O185        C195   1.264       .  A
O186        V191   1.894       .  S
O186        C196   1.263       .  A
O187        V192   1.903       .  S
O187        C196   1.265       .  A
O188        V192   1.903       .  S
O188        C195   1.267       .  A
O189        V192   1.885       .  S
O189        C194   1.260       .  A
O190        V192   1.885       .  S
O190        C193   1.262       .  A
V191        V192   2.085       .  T
C193        C257   1.479       .  S
C194        C285   1.475       .  S
C195        C341   1.488       .  S
C196        C411   1.481       .  S
O197        V205   1.906   1_455  S
O197        C207   1.265       .  A
O198        V205   1.905       .  S
O198        C208   1.266       .  A
O199        V205   1.895       .  S
O199        C209   1.264       .  A
O200        V205   1.897       .  S
O200        C210   1.264       .  A
O201        V206   1.903       .  S
O201        C210   1.267       .  A
O202        V206   1.903       .  S
O202        C209   1.266       .  A
O203        V206   1.888       .  S
O203        C208   1.261       .  A
O204        V206   1.881       .  S
O204        C207   1.261   1_655  A
V205        V206   2.086       .  T
C207        C226   1.471       .  S
C208        C327   1.471       .  S
C209        C299   1.485       .  S
C210        C635   1.486       .  S
O211        V219   1.908   1_565  S
O211        C221   1.266       .  A
O212        V219   1.906       .  S
O212        C222   1.266       .  A
O213        V219   1.900       .  S
O213        C223   1.265       .  A
O214        V219   1.901       .  S
O214        C224   1.265       .  A
O215        V220   1.905       .  S
O215        C224   1.266       .  A
O216        V220   1.904       .  S
O216        C223   1.266       .  A
O217        V220   1.883       .  S
O217        C222   1.261       .  A
O218        V220   1.878       .  S
O218        C221   1.260   1_545  A
V219        V220   2.087       .  T
C221        C229   1.471       .  S
C222        C355   1.474       .  S
C223        C593   1.487       .  S
C224        C243   1.482       .  S
C225        C226   1.401       .  A
C225        C230   1.394       .  A
C225        H232   1.085       .  S
C226        C227   1.412       .  A
C227        C228   1.409       .  A
C227        N234   1.437       .  S
C228        C229   1.404       .  A
C228        H233   1.084       .  S
C229        C230   1.407       .  A
C230        N231   1.434       .  S
N231        H235   1.046       .  S
N231        H236   1.045       .  S
N234        H237   1.046       .  S
N234        H238   1.046       .  S
C239        C240   1.408       .  A
C239        C244   1.406       .  A
C239        H246   1.084       .  S
C240        C241   1.413       .  A
C241        C242   1.405       .  A
C241        N248   1.432       .  S
C242        C243   1.403       .  A
C242        H247   1.084       .  S
C243        C244   1.409       .  A
C244        N245   1.432       .  S
N245        H249   1.046   1_545  S
N245        H250   1.046       .  S
N248        H251   1.045       .  S
N248        H252   1.046       .  S
C253        C254   1.404       .  A
C253        C258   1.414       .  A
C253        H260   1.084       .  S
C254        C255   1.408       .  A
C255        C256   1.396       .  A
C255        N262   1.434       .  S
C256        C257   1.401       .  A
C256        H261   1.084       .  S
C257        C258   1.415       .  A
C258        N259   1.437       .  S
N259        H263   1.046       .  S
N259        H264   1.045       .  S
N262        H265   1.046       .  S
N262        H266   1.045       .  S
C267        C268   1.404       .  A
C267        C272   1.405       .  A
C267        H274   1.084       .  S
C268        C269   1.416       .  A
C269        C270   1.396       .  A
C269        N276   1.433       .  S
C270        C271   1.398       .  A
C270        H275   1.084       .  S
C271        C272   1.412       .  A
C272        N273   1.432       .  S
N273        H277   1.046       .  S
N273        H278   1.046       .  S
N276        H279   1.046       .  S
N276        H280   1.046       .  S
C281        C282   1.402       .  A
C281        C286   1.400       .  A
C281        H288   1.084       .  S
C282        C283   1.414       .  A
C283        C284   1.401       .  A
C283        N290   1.433       .  S
C284        C285   1.401       .  A
C284        H289   1.084       .  S
C285        C286   1.412       .  A
C286        N287   1.433       .  S
N287        H291   1.046       .  S
N287        H292   1.046       .  S
N290        H293   1.046       .  S
N290        H294   1.046       .  S
C295        C296   1.403       .  A
C295        C300   1.404       .  A
C295        H302   1.084       .  S
C296        C297   1.407       .  A
C297        C298   1.402       .  A
C297        N304   1.432   1_655  S
C298        C299   1.407       .  A
C298        H303   1.084       .  S
C299        C300   1.413       .  A
C300        N301   1.432       .  S
N301        H305   1.046       .  S
N301        H306   1.046       .  S
N304        H307   1.045   1_455  S
N304        H308   1.046       .  S
C309        C310   1.401       .  A
C309        C314   1.397       .  A
C309        H316   1.084       .  S
C310        C311   1.408       .  A
C311        C312   1.405       .  A
C311        N318   1.432       .  S
C312        C313   1.403       .  A
C312        H317   1.084       .  S
C313        C314   1.409       .  A
C314        N315   1.439       .  S
N315        H319   1.046       .  S
N315        H320   1.046       .  S
N318        H321   1.046       .  S
N318        H322   1.045       .  S
C323        C324   1.409       .  A
C323        C328   1.398       .  A
C323        H330   1.084       .  S
C324        C325   1.412       .  A
C325        C326   1.403       .  A
C325        N332   1.432       .  S
C326        C327   1.402       .  A
C326        H331   1.084       .  S
C327        C328   1.410       .  A
C328        N329   1.433       .  S
N329        H333   1.045       .  S
N329        H334   1.046       .  S
N332        H335   1.046       .  S
N332        H336   1.046       .  S
C337        C338   1.402       .  A
C337        C342   1.406       .  A
C337        H344   1.084       .  S
C338        C339   1.417       .  A
C339        C340   1.398       .  A
C339        N346   1.433       .  S
C340        C341   1.404       .  A
C340        H345   1.084       .  S
C341        C342   1.415       .  A
C342        N343   1.432       .  S
N343        H347   1.046       .  S
N343        H348   1.046       .  S
N346        H349   1.046       .  S
N346        H350   1.044       .  S
C351        C352   1.408       .  A
C351        C356   1.406       .  A
C351        H358   1.083       .  S
C352        C353   1.409       .  A
C353        C354   1.399       .  A
C353        N360   1.433       .  S
C354        C355   1.404       .  A
C354        H359   1.084       .  S
C355        C356   1.410       .  A
C356        N357   1.438       .  S
N357        H361   1.046       .  S
N357        H362   1.046       .  S
N360        H363   1.046       .  S
N360        H364   1.046       .  S
C365        C366   1.406       .  A
C365        C370   1.405       .  A
C365        H372   1.084       .  S
C366        C367   1.418       .  A
C367        C368   1.405       .  A
C367        N374   1.438       .  S
C368        C369   1.400       .  A
C368        H373   1.084       .  S
C369        C370   1.410       .  A
C370        N371   1.433       .  S
N371        H375   1.046       .  S
N371        H376   1.045       .  S
N374        H377   1.046       .  S
N374        H378   1.046       .  S
C379        C380   1.402       .  A
C379        C384   1.399       .  A
C379        H386   1.084       .  S
C380        C381   1.413       .  A
C381        C382   1.410       .  A
C381        N388   1.437       .  S
C382        C383   1.402       .  A
C382        H387   1.084       .  S
C383        C384   1.406       .  A
C384        N385   1.433       .  S
N385        H389   1.046       .  S
N385        H390   1.045       .  S
N388        H391   1.045       .  S
N388        H392   1.046       .  S
C393        C394   1.408   1_554  A
C393        C398   1.398       .  A
C393        H400   1.084   1_554  S
C394        C395   1.418       .  A
C395        C396   1.402   1_556  A
C395        N402   1.432       .  S
C396        C397   1.406       .  A
C396        H401   1.084       .  S
C397        C398   1.415       .  A
C398        N399   1.433       .  S
N399        H403   1.045       .  S
N399        H404   1.046       .  S
N402        H405   1.045       .  S
N402        H406   1.045       .  S
C407        C408   1.409   1_554  A
C407        C412   1.397       .  A
C407        H414   1.084       .  S
C408        C409   1.419       .  A
C409        C410   1.400   1_556  A
C409        N416   1.432       .  S
C410        C411   1.404       .  A
C410        H415   1.084       .  S
C411        C412   1.413       .  A
C412        N413   1.433       .  S
N413        H417   1.045       .  S
N413        H418   1.045       .  S
N416        H419   1.045       .  S
N416        H420   1.045       .  S
C421        C422   1.401       .  A
C421        C426   1.393       .  A
C421        H428   1.084       .  S
C422        C423   1.413       .  A
C423        C424   1.410       .  A
C423        N430   1.437       .  S
C424        C425   1.403       .  A
C424        H429   1.084       .  S
C425        C426   1.414       .  A
C426        N427   1.434   1_545  S
N427        H431   1.044       .  S
N427        H432   1.046       .  S
N430        H433   1.045       .  S
N430        H434   1.046       .  S
C435        C436   1.406       .  A
C435        C440   1.408       .  A
C435        H442   1.083       .  S
C436        C437   1.416       .  A
C437        C438   1.404       .  A
C437        N444   1.433       .  S
C438        C439   1.402       .  A
C438        H443   1.084       .  S
C439        C440   1.413       .  A
C440        N441   1.438       .  S
N441        H445   1.046       .  S
N441        H446   1.046       .  S
N444        H447   1.046       .  S
N444        H448   1.046       .  S
C449        C450   1.407       .  A
C449        C454   1.403       .  A
C449        H456   1.084       .  S
C450        C451   1.411       .  A
C451        C452   1.405       .  A
C451        N458   1.432       .  S
C452        C453   1.407       .  A
C452        H457   1.084       .  S
C453        C454   1.411       .  A
C454        N455   1.433       .  S
N455        H459   1.046       .  S
N455        H460   1.046       .  S
N458        H461   1.046       .  S
N458        H462   1.046       .  S
C463        C464   1.404       .  A
C463        C468   1.406       .  A
C463        H470   1.084       .  S
C464        C465   1.414       .  A
C465        C466   1.402       .  A
C465        N472   1.432       .  S
C466        C467   1.402       .  A
C466        H471   1.084       .  S
C467        C468   1.414       .  A
C468        N469   1.433       .  S
N469        H473   1.046       .  S
N469        H474   1.046       .  S
N472        H475   1.046       .  S
N472        H476   1.046       .  S
C477        C478   1.403       .  A
C477        C482   1.411       .  A
C477        H484   1.084       .  S
C478        C479   1.411       .  A
C479        C480   1.402       .  A
C479        N486   1.438       .  S
C480        C481   1.401       .  A
C480        H485   1.084       .  S
C481        C482   1.412       .  A
C482        N483   1.437       .  S
N483        H487   1.045       .  S
N483        H488   1.045       .  S
N486        H489   1.046       .  S
N486        H490   1.046       .  S
C491        C492   1.407       .  A
C491        C496   1.404       .  A
C491        H498   1.084       .  S
C492        C493   1.410       .  A
C493        C494   1.403       .  A
C493        N500   1.438       .  S
C494        C495   1.408       .  A
C494        H499   1.084       .  S
C495        C496   1.410       .  A
C496        N497   1.438       .  S
N497        H501   1.046       .  S
N497        H502   1.045       .  S
N500        H503   1.046       .  S
N500        H504   1.046       .  S
C505        C506   1.408   1_554  A
C505        C510   1.404       .  A
C505        H512   1.084       .  S
C506        C507   1.419       .  A
C507        C508   1.397   1_556  A
C507        N514   1.432       .  S
C508        C509   1.404       .  A
C508        H513   1.084       .  S
C509        C510   1.418       .  A
C510        N511   1.432       .  S
N511        H515   1.045       .  S
N511        H516   1.045       .  S
N514        H517   1.045       .  S
N514        H518   1.045       .  S
C519        C520   1.408       .  A
C519        C524   1.411       .  A
C519        H526   1.083       .  S
C520        C521   1.410       .  A
C521        C522   1.400       .  A
C521        N528   1.433       .  S
C522        C523   1.404       .  A
C522        H527   1.084       .  S
C523        C524   1.413       .  A
C524        N525   1.437       .  S
N525        H529   1.046       .  S
N525        H530   1.046       .  S
N528        H531   1.046       .  S
N528        H532   1.046       .  S
C533        C534   1.405       .  A
C533        C538   1.406       .  A
C533        H540   1.083       .  S
C534        C535   1.421       .  A
C535        C536   1.397       .  A
C535        N542   1.433       .  S
C536        C537   1.401       .  A
C536        H541   1.084       .  S
C537        C538   1.415       .  A
C538        N539   1.438       .  S
N539        H543   1.046       .  S
N539        H544   1.046       .  S
N542        H545   1.046       .  S
N542        H546   1.044       .  S
C547        C548   1.406       .  A
C547        C552   1.405   1_554  A
C547        H554   1.084       .  S
C548        C549   1.413       .  A
C549        C550   1.405       .  A
C549        N556   1.438       .  S
C550        C551   1.407   1_554  A
C550        H555   1.083   1_554  S
C551        C552   1.411       .  A
C552        N553   1.432       .  S
N553        H557   1.046       .  S
N553        H558   1.046       .  S
N556        H559   1.046       .  S
N556        H560   1.046       .  S
C561        C562   1.402       .  A
C561        C566   1.399       .  A
C561        H568   1.084   1_655  S
C562        C563   1.412       .  A
C563        C564   1.409       .  A
C563        N570   1.437       .  S
C564        C565   1.402       .  A
C564        H569   1.084       .  S
C565        C566   1.410       .  A
C566        N567   1.439       .  S
N567        H571   1.046       .  S
N567        H572   1.046       .  S
N570        H573   1.045       .  S
N570        H574   1.046       .  S
C575        C576   1.410       .  A
C575        C580   1.401       .  A
C575        H582   1.084       .  S
C576        C577   1.416       .  A
C577        C578   1.401       .  A
C577        N584   1.432       .  S
C578        C579   1.407       .  A
C578        H583   1.084       .  S
C579        C580   1.414       .  A
C580        N581   1.433       .  S
N581        H585   1.046       .  S
N581        H586   1.045       .  S
N584        H587   1.046       .  S
N584        H588   1.045       .  S
C589        C590   1.407       .  A
C589        C594   1.407       .  A
C589        H596   1.083       .  S
C590        C591   1.413       .  A
C591        C592   1.406       .  A
C591        N598   1.432       .  S
C592        C593   1.406       .  A
C592        H597   1.084       .  S
C593        C594   1.414       .  A
C594        N595   1.438       .  S
N595        H599   1.046       .  S
N595        H600   1.046       .  S
N598        H601   1.046       .  S
N598        H602   1.046   1_545  S
C603        C604   1.407       .  A
C603        C608   1.408       .  A
C603        H610   1.084       .  S
C604        C605   1.412       .  A
C605        C606   1.405       .  A
C605        N612   1.438       .  S
C606        C607   1.405       .  A
C606        H611   1.084       .  S
C607        C608   1.412       .  A
C608        N609   1.438       .  S
N609        H613   1.046       .  S
N609        H614   1.046       .  S
N612        H615   1.045       .  S
N612        H616   1.045       .  S
C617        C618   1.406       .  A
C617        C622   1.399       .  A
C617        H624   1.084       .  S
C618        C619   1.414       .  A
C619        C620   1.408       .  A
C619        N626   1.438       .  S
C620        C621   1.407       .  A
C620        H625   1.084       .  S
C621        C622   1.408       .  A
C622        N623   1.433       .  S
N623        H627   1.046       .  S
N623        H628   1.046       .  S
N626        H629   1.046       .  S
N626        H630   1.046       .  S
C631        C632   1.405       .  A
C631        C636   1.407       .  A
C631        H638   1.083       .  S
C632        C633   1.416       .  A
C633        C634   1.405       .  A
C633        N640   1.438       .  S
C634        C635   1.403       .  A
C634        H639   1.083       .  S
C635        C636   1.414       .  A
C636        N637   1.438       .  S
N637        H641   1.046   1_655  S
N637        H642   1.045   1_655  S
N640        H643   1.046       .  S
N640        H644   1.045       .  S
C645        C646   1.404       .  A
C645        C650   1.406       .  A
C645        H652   1.084       .  S
C646        C647   1.414       .  A
C647        C648   1.404       .  A
C647        N654   1.432       .  S
C648        C649   1.402       .  A
C648        H653   1.084       .  S
C649        C650   1.414       .  A
C650        N651   1.438       .  S
N651        H655   1.046       .  S
N651        H656   1.046       .  S
N654        H657   1.046       .  S
N654        H658   1.046       .  S
C659        C660   1.402       .  A
C659        C664   1.397       .  A
C659        H666   1.084   1_545  S
C660        C661   1.416       .  A
C661        C662   1.406       .  A
C661        N668   1.432       .  S
C662        C663   1.404       .  A
C662        H667   1.084       .  S
C663        C664   1.408       .  A
C664        N665   1.433   1_655  S
N665        H669   1.046       .  S
N665        H670   1.046       .  S
N668        H671   1.045       .  S
N668        H672   1.045       .  S
