geometry optimzed in LAMMPS
_audit_creation_date              2020-12-01 
_audit_creation_method            'lammps2cif' 
_symmetry_space_group_name_H-M    'P1' 
_symmetry_Int_Tables_number       1 
_symmetry_cell_setting            triclinic 
loop_ 
_symmetry_equiv_pos_as_xyz 
  x,y,z 
_cell_length_a                    37.18988768 
_cell_length_b                    37.69060010881516 
_cell_length_c                    37.05293905675027 
_cell_angle_alpha                 90.3303168686756 
_cell_angle_beta                  90.10928451150062 
_cell_angle_gamma                 89.67923003812793 
loop_ 
_atom_site_label 
_atom_site_type_symbol 
_atom_site_fract_x 
_atom_site_fract_y 
_atom_site_fract_z 
_atom_site_charge 
O1          O  0.37707864  0.87269622  0.41353090    -0.57200
C2          C  0.28147690  0.89533738  0.44955805     0.75500
O3          O  0.36813599  0.98205320  0.42611722    -0.58300
C4          C  0.40645795  0.88944549  0.41423013     0.75400
C5          C  0.32014803  0.94001348  0.33377652     0.77800
Cd6        Cd  0.33825505  0.92633618  0.40840626     1.37500
O7          O  0.31265828  0.88176516  0.44921125    -0.57100
O8          O  0.32664996  0.90900830  0.34494871    -0.56000
C9          C  0.35201568  0.98551070  0.45600629     0.77800
O10         O  0.32042148  0.96417652  0.35756577    -0.58300
O11         O  0.27579469  0.92024722  0.42738729    -0.56800
O12         O  0.40382595  0.92262857  0.41007393    -0.56800
O13         O  0.32769220  0.96321591  0.46215784    -0.55900
O14         O  0.40079874  0.05338045  0.60827396    -0.57200
C15         C  0.42820976  0.01078279  0.69953948     0.75500
O16         O  0.50444648  0.03064074  0.60834530    -0.58300
C17         C  0.41755649  0.04980802  0.57865582     0.75400
C18         C  0.46374016  0.13347781  0.65466761     0.77800
Cd19       Cd  0.45659601  0.05724979  0.64521417     1.37500
O20         O  0.42113378  0.00688943  0.66635270    -0.57100
O21         O  0.43411738  0.11790200  0.65922298    -0.56000
C22         C  0.51968195  0.01420708  0.63383417     0.77800
O23         O  0.49045445  0.11325875  0.64900477    -0.58300
O24         O  0.44507210  0.03867569  0.70829853    -0.56800
O25         O  0.45135194  0.05094659  0.58077392    -0.56800
O26         O  0.50872295  0.02130269  0.66539516    -0.55900
O27         O  0.58027383  0.85591358  0.59221936    -0.57200
C28         C  0.54099900  0.76825512  0.56014850     0.75500
O29         O  0.54689391  0.80929357  0.48191744    -0.58300
C30         C  0.58054128  0.88669683  0.57867397     0.75400
C31         C  0.66222219  0.80947276  0.52061812     0.77800
Cd32       Cd  0.58620730  0.82430625  0.53357212     1.37500
O33         O  0.53690568  0.80002831  0.57060257    -0.57100
O34         O  0.64805604  0.80690499  0.55145734    -0.56000
C35         C  0.53968940  0.84111011  0.47384753     0.77800
O36         O  0.64073039  0.81739939  0.49536420    -0.58300
O37         O  0.56803773  0.76208600  0.54036820    -0.56800
O38         O  0.58629241  0.88803238  0.54506476    -0.56800
O39         O  0.55724176  0.86456067  0.49064645    -0.55900
O40         O  0.58134938  0.05198869  0.93628529    -0.57200
C41         C  0.54479184  0.14366275  0.96785923     0.75500
O42         O  0.56949685  0.05093530  0.04815971    -0.58300
C43         C  0.57328152  0.02276683  0.95073523     0.75400
C44         C  0.66369038  0.09684293  0.00379725     0.77800
Cd45       Cd  0.58696370  0.08486627  0.99397706     1.37500
O46         O  0.54118060  0.11262847  0.95538129    -0.57100
O47         O  0.64935513  0.09477756  0.97293037    -0.56000
C48         C  0.54260002  0.07034460  0.05580208     0.77800
O49         O  0.64226166  0.09421954  0.03011885    -0.58300
O50         O  0.57095639  0.14833852  0.98934789    -0.56800
O51         O  0.57486372  0.02196164  0.98479868    -0.56800
O52         O  0.53896376  0.09804909  0.03715429    -0.55900
O53         O  0.38638223  0.03055388  0.11533243    -0.57200
C54         C  0.29740926  0.02000891  0.05781422     0.75500
O55         O  0.31786412  0.93746820  0.06562997    -0.58300
C56         C  0.41404506  0.01163406  0.10929434     0.75400
C57         C  0.32218921  0.97196016  0.18159468     0.77800
Cd58       Cd  0.34285117  0.98187232  0.10733947     1.37500
O59         O  0.28466561  0.00317526  0.08433748    -0.57100
O60         O  0.32236632  0.00216219  0.16706320    -0.56000
C61         C  0.34692546  0.92027961  0.06173688     0.77800
O62         O  0.32912881  0.94604391  0.16086911    -0.58300
O63         O  0.33123594  0.02313738  0.05700989    -0.56800
O64         O  0.40837319  0.97911467  0.10361337    -0.56800
O65         O  0.37257953  0.92898643  0.08234266    -0.55900
O66         O  0.38328938  0.85884269  0.90036599    -0.57200
C67         C  0.42258752  0.89798349  0.80383806     0.75500
O68         O  0.50285550  0.87217094  0.88979727    -0.58300
C69         C  0.39747533  0.86100164  0.93139342     0.75400
C70         C  0.45423923  0.78285603  0.85440959     0.77800
Cd71       Cd  0.44112606  0.85777584  0.86764652     1.37500
O72         O  0.40189404  0.89719572  0.83090227    -0.57100
O73         O  0.42270237  0.79553040  0.85680800    -0.56000
C74         C  0.49674262  0.90527745  0.89075379     0.77800
O75         O  0.47942362  0.80517038  0.85656900    -0.58300
O76         O  0.44913743  0.87689300  0.80469316    -0.56800
O77         O  0.43141311  0.85905146  0.93255751    -0.56800
O78         O  0.46576663  0.91530112  0.88110820    -0.55900
O79         O  0.89734288  0.05877568  0.09047657    -0.57200
C80         C  0.94400228  0.14545211  0.06467871     0.75500
O81         O  0.92374249  0.05607007  0.98990713    -0.58300
C82         C  0.90121005  0.02923187  0.07446724     0.75400
C83         C  0.81809930  0.10398492  0.02808012     0.77800
Cd84       Cd  0.89505249  0.09376217  0.03474810     1.37500
O85         O  0.94674495  0.11280529  0.07150528    -0.57100
O86         O  0.83392624  0.10651050  0.05816937    -0.56000
C87         C  0.93627105  0.08060696  0.97060425     0.77800
O88         O  0.83828623  0.09980308  0.00093666    -0.58300
O89         O  0.91623729  0.15467623  0.04707346    -0.56800
O90         O  0.90033707  0.02997016  0.04034623    -0.56800
O91         O  0.92592844  0.11180673  0.97827545    -0.55900
O92         O  0.07162312  0.85932106  0.11349278    -0.57200
C93         C  0.04142268  0.89580039  0.20530740     0.75500
O94         O  0.96483907  0.89293243  0.16147409    -0.58300
C95         C  0.05697759  0.86051256  0.08256179     0.75400
C96         C  0.00618412  0.77713004  0.16029544     0.77800
Cd97       Cd  0.01470641  0.85225954  0.14692950     1.37500
O98         O  0.05768496  0.89370734  0.17539823    -0.57100
O99         O  0.03602824  0.79277008  0.16312784    -0.56000
C100        C  0.95601078  0.89860466  0.12902101     0.77800
O101        O  0.97959014  0.79682454  0.15303968    -0.58300
O102        O  0.01495533  0.87517998  0.20923483    -0.56800
O103        O  0.02337598  0.85591924  0.08175522    -0.56800
O104        O  0.97117562  0.87936627  0.10549583    -0.55900
O105        O  0.15960623  0.03363540  0.94837014    -0.57200
C106        C  0.06172090  0.02279660  0.90900119     0.75500
O107        O  0.13918632  0.94487701  0.86169537    -0.58300
C108        C  0.19009263  0.01886217  0.95021036     0.75400
C109        C  0.11751801  0.93172702  0.96369488     0.77800
Cd110      Cd  0.13054303  0.98676283  0.91204125     1.37500
O111        O  0.09090379  0.03978125  0.90664311    -0.57100
O112        O  0.11474076  0.96434466  0.97124783    -0.56000
C113        C  0.14501128  0.96789203  0.83781316     0.77800
O114        O  0.12608878  0.92376354  0.93160686    -0.58300
O115        O  0.06482807  0.98947650  0.91063603    -0.56800
O116        O  0.19425052  0.99129284  0.93093779    -0.56800
O117        O  0.14607563  0.99978875  0.84872602    -0.55900
O118        O  0.93735080  0.54857346  0.08818141    -0.57200
C119        C  0.96404411  0.50571937  0.18132451     0.75500
O120        O  0.04733660  0.53472240  0.09420239    -0.58300
C121        C  0.95473647  0.54764333  0.05884844     0.75400
C122        C  0.00024726  0.62399004  0.14878144     0.77800
Cd123      Cd  0.99154908  0.55113811  0.12680352     1.37500
O124        O  0.95165626  0.50501580  0.14946324    -0.57100
O125        O  0.96971012  0.60953086  0.14617302    -0.56000
C126        C  0.05034238  0.50506885  0.10988935     0.77800
O127        O  0.02687411  0.60386477  0.14272415    -0.58300
O128        O  0.98605894  0.53020238  0.18896740    -0.56800
O129        O  0.98839986  0.55096400  0.06165227    -0.56800
O130        O  0.02917631  0.49954394  0.13574674    -0.55900
O131        O  0.09098767  0.34648285  0.06931981    -0.57200
C132        C  0.05268186  0.24989045  0.05755704     0.75500
O133        O  0.03603185  0.30404572  0.98997415    -0.58300
C134        C  0.09224667  0.37317654  0.04878232     0.75400
C135        C  0.16903164  0.28636689  0.01391034     0.77800
Cd136      Cd  0.09360333  0.30219286  0.02042014     1.37500
O137        O  0.05410090  0.28164096  0.06851307    -0.57100
O138        O  0.15532398  0.29782690  0.04296165    -0.56000
C139        C  0.04718155  0.30974744  0.95845242     0.77800
O140        O  0.14712542  0.27900998  0.98886066    -0.58300
O141        O  0.07414664  0.24118493  0.03243410    -0.56800
O142        O  0.09527974  0.36640706  0.01553376    -0.56800
O143        O  0.08094812  0.31184537  0.95461093    -0.55900
O144        O  0.89946022  0.36231109  0.89360387    -0.57200
C145        C  0.82111225  0.40160343  0.94915381     0.75500
O146        O  0.91892098  0.45965307  0.91867162    -0.58300
C147        C  0.93121226  0.37363930  0.88921964     0.75400
C148        C  0.84876467  0.44066087  0.82168387     0.77800
Cd149      Cd  0.87161458  0.42249092  0.89413486     1.37500
O150        O  0.85456981  0.40219903  0.95461746    -0.57100
O151        O  0.84757452  0.40916867  0.83339744    -0.56000
C152        C  0.89843671  0.48278662  0.93259255     0.77800
O153        O  0.85858450  0.46376507  0.84436509    -0.58300
O154        O  0.81101488  0.40715557  0.91697314    -0.56800
O155        O  0.93403755  0.40652062  0.88393921    -0.56800
O156        O  0.86517584  0.47960729  0.92595258    -0.55900
O157        O  0.41634237  0.34392067  0.93991283    -0.57200
C158        C  0.44355720  0.25832481  0.97135703     0.75500
O159        O  0.43525276  0.30506259  0.04945093    -0.58300
C160        C  0.40080733  0.37322625  0.94605325     0.75400
C161        C  0.32365203  0.29632572  0.00456962     0.77800
Cd162      Cd  0.39796183  0.31490352  0.99542629     1.37500
O163        O  0.44333941  0.28806574  0.95578443    -0.57100
O164        O  0.34050338  0.28962223  0.97565089    -0.56000
C165        C  0.44304912  0.33739855  0.05364384     0.77800
O166        O  0.34168719  0.31068980  0.02956317    -0.58300
O167        O  0.42034795  0.25378077  0.99586707    -0.56800
O168        O  0.38164926  0.37458513  0.97425721    -0.56800
O169        O  0.42619888  0.35919193  0.03407368    -0.55900
O170        O  0.67805880  0.39003194  0.05419205    -0.57200
C171        C  0.57760206  0.39428824  0.09263018     0.75500
O172        O  0.65426278  0.47408734  0.13946730    -0.58300
C173        C  0.70559396  0.40927316  0.05081620     0.75400
C174        C  0.62067722  0.48619358  0.03260735     0.77800
Cd175      Cd  0.64243755  0.43512596  0.08668544     1.37500
O176        O  0.60676349  0.38000883  0.08256048    -0.57100
O177        O  0.62983654  0.45465872  0.02551563    -0.56000
C178        C  0.65950349  0.44895760  0.16140726     0.77800
O179        O  0.62120145  0.49502612  0.06567437    -0.58300
O180        O  0.57939436  0.42678427  0.10104798    -0.56800
O181        O  0.70488644  0.43893036  0.06713950    -0.56800
O182        O  0.65966636  0.41804263  0.14786561    -0.55900
O183        O  0.53445368  0.52653309  0.80502248    -0.57200
C184        C  0.54743708  0.55132462  0.91466135     0.75500
O185        O  0.45673693  0.60636996  0.85768447    -0.58300
C186        C  0.50702966  0.51811531  0.78654452     0.75400
C187        C  0.45241355  0.49973823  0.88028809     0.77800
Cd188      Cd  0.49820292  0.55502101  0.85440924     1.37500
O189        O  0.55900451  0.55060563  0.88244090    -0.57100
O190        O  0.48474748  0.49500609  0.87099257    -0.56000
C191        C  0.47898487  0.62977145  0.84823994     0.77800
O192        O  0.44032064  0.53121030  0.87816404    -0.58300
O193        O  0.51404145  0.55623051  0.91819590    -0.56800
O194        O  0.47741943  0.53153178  0.79666597    -0.56800
O195        O  0.50975659  0.61809903  0.83922408    -0.55900
O196        O  0.55487167  0.36966726  0.59062423    -0.57200
C197        C  0.50272902  0.40739017  0.67600445     0.75500
O198        O  0.46783924  0.39208581  0.56573446    -0.58300
C199        C  0.54732610  0.36180783  0.55816196     0.75400
C200        C  0.48527393  0.28487439  0.63467825     0.77800
Cd201      Cd  0.49407051  0.35897465  0.61501594     1.37500
O202        O  0.52764928  0.40352974  0.65297400    -0.57100
O203        O  0.51308942  0.30231039  0.64274193    -0.56000
C204        C  0.43893919  0.40109705  0.58100487     0.77800
O205        O  0.46115192  0.30199102  0.61793223    -0.58300
O206        O  0.47606181  0.38734977  0.67149175    -0.56800
O207        O  0.51595898  0.34983210  0.55293977    -0.56800
O208        O  0.43333732  0.38753372  0.61164141    -0.55900
O209        O  0.43151988  0.63246263  0.55988907    -0.57200
C210        C  0.39012013  0.53511847  0.53332060     0.75500
O211        O  0.34739580  0.62516726  0.46850048    -0.58300
C212        C  0.43290306  0.66350823  0.54707616     0.75400
C213        C  0.45610424  0.59487607  0.45991453     0.77800
Cd214      Cd  0.39751934  0.60710348  0.50882883     1.37500
O215        O  0.39113084  0.56070293  0.55562853    -0.57100
O216        O  0.45924175  0.59490886  0.49378850    -0.56000
C217        C  0.32401021  0.62654640  0.49330693     0.77800
O218        O  0.42497958  0.60140593  0.44734790    -0.58300
O219        O  0.39032183  0.54347979  0.50032287    -0.56800
O220        O  0.41458072  0.66932571  0.51885899    -0.56800
O221        O  0.33563120  0.62081588  0.52492054    -0.55900
O222        O  0.61007644  0.53978276  0.39744725    -0.57200
C223        C  0.69806429  0.50860951  0.43534656     0.75500
O224        O  0.60123271  0.43310607  0.41219457    -0.58300
C225        C  0.57861962  0.52710294  0.39853132     0.75400
C226        C  0.65523120  0.46819817  0.31691243     0.77800
Cd227      Cd  0.64057560  0.48148052  0.39248545     1.37500
O228        O  0.66588159  0.51889175  0.43920585    -0.57100
O229        O  0.65162846  0.49934608  0.32931549    -0.56000
C230        C  0.62056273  0.42275844  0.43820567     0.77800
O231        O  0.65425097  0.44366957  0.33995811    -0.58300
O232        O  0.70459720  0.48826714  0.40877544    -0.56800
O233        O  0.57622453  0.49384553  0.39505505    -0.56800
O234        O  0.65099985  0.43732829  0.44088279    -0.55900
O235        O  0.92612842  0.36398650  0.38300411    -0.57200
C236        C  0.96279761  0.39338290  0.28457342     0.75500
O237        O  0.00576170  0.42016384  0.35128659    -0.58300
C238        C  0.94015344  0.36531551  0.41411984     0.75400
C239        C  0.99917845  0.28370934  0.34068247     0.77800
Cd240      Cd  0.98403342  0.35931110  0.35020900     1.37500
O241        O  0.94144977  0.39102925  0.31106787    -0.57100
O242        O  0.96779401  0.29662516  0.33775992    -0.56000
C243        C  0.03427333  0.41492622  0.36896697     0.77800
O244        O  0.02383565  0.30626413  0.34552187    -0.58300
O245        O  0.99175180  0.37561260  0.28659822    -0.56800
O246        O  0.97392300  0.36148462  0.41519020    -0.56800
O247        O  0.04142092  0.38288020  0.37661011    -0.55900
O248        O  0.05505850  0.64691541  0.42120835    -0.57200
C249        C  0.08969475  0.54690527  0.42379865     0.75500
O250        O  0.14773651  0.62129079  0.50069624    -0.58300
C251        C  0.05311141  0.67461780  0.44057871     0.75400
C252        C  0.04206525  0.59611020  0.51873622     0.77800
Cd253      Cd  0.09339294  0.61327134  0.46335650     1.37500
O254        O  0.09033645  0.57629500  0.40746893    -0.57100
O255        O  0.07540683  0.59371922  0.52561046    -0.56000
C256        C  0.16884854  0.62920501  0.47531225     0.77800
O257        O  0.03401834  0.60776206  0.48790738    -0.58300
O258        O  0.09365457  0.54877929  0.45763940    -0.56800
O259        O  0.07369487  0.67552116  0.46789467    -0.56800
O260        O  0.15450742  0.63123716  0.44433704    -0.55900
O261        O  0.88797020  0.54130277  0.58547109    -0.57200
C262        C  0.80324500  0.50722583  0.54764179     0.75500
O263        O  0.84856291  0.43465670  0.54690531    -0.58300
C264        C  0.92011442  0.53033096  0.58332304     0.75400
C265        C  0.84637614  0.46679806  0.66755530     0.77800
Cd266      Cd  0.86130972  0.48170002  0.59162974     1.37500
O267        O  0.83462626  0.51961392  0.54504280    -0.57100
O268        O  0.84507003  0.49798018  0.65509062    -0.56000
C269        C  0.88069483  0.42397652  0.54380093     0.77800
O270        O  0.85381773  0.44292075  0.64471272    -0.58300
O271        O  0.79813944  0.48534157  0.57288449    -0.56800
O272        O  0.92491267  0.49745050  0.58842065    -0.56800
O273        O  0.90297581  0.43731948  0.56573675    -0.55900
O274        O  0.14138160  0.89748340  0.55730872    -0.57200
C275        C  0.05866971  0.89857193  0.60778943     0.75500
O276        O  0.14439526  0.97185180  0.66277690    -0.58300
C277        C  0.17500534  0.90165874  0.55879028     0.75400
C278        C  0.11445470  0.99787827  0.56537092     0.77800
Cd279      Cd  0.12673576  0.93595789  0.60897349     1.37500
O280        O  0.06061986  0.93163170  0.61375863    -0.57100
O281        O  0.09020412  0.98446299  0.58475015    -0.56000
C282        C  0.14823848  0.94566859  0.68357899     0.77800
O283        O  0.14566005  0.98488101  0.56911943    -0.58300
O284        O  0.08854250  0.88252479  0.60535786    -0.56800
O285        O  0.18677706  0.91859707  0.58595871    -0.56800
O286        O  0.14444664  0.91537632  0.66925215    -0.55900
O287        O  0.07678489  0.05060777  0.40397180    -0.57200
C288        C  0.04588886  0.00291937  0.31602465     0.75500
O289        O  0.96424231  0.02525230  0.34796320    -0.58300
C290        C  0.06147397  0.05328854  0.43437867     0.75400
C291        C  0.01398178  0.12996297  0.35015787     0.77800
Cd292      Cd  0.02030248  0.05493670  0.36801196     1.37500
O293        O  0.05338679  0.00059711  0.34922756    -0.57100
O294        O  0.04322795  0.11321388  0.34549053    -0.56000
C295        C  0.95419714  0.01664562  0.37927610     0.77800
O296        O  0.98814072  0.11182313  0.36192114    -0.58300
O297        O  0.03028499  0.03130206  0.30635939    -0.56800
O298        O  0.02775286  0.05788376  0.43338008    -0.56800
O299        O  0.97261462  0.02871141  0.40527342    -0.55900
O300        O  0.88971379  0.86232997  0.41786828    -0.57200
C301        C  0.94352658  0.78195133  0.44700723     0.75500
O302        O  0.91458466  0.86951134  0.52287883    -0.58300
C303        C  0.89060436  0.89296055  0.43201458     0.75400
C304        C  0.81532162  0.81058135  0.48855357     0.77800
Cd305      Cd  0.89035702  0.83008987  0.47625327     1.37500
O306        O  0.94494265  0.81497920  0.44169145    -0.57100
O307        O  0.83070578  0.80373069  0.45888769    -0.56000
C308        C  0.93181489  0.84646124  0.54057139     0.77800
O309        O  0.83523476  0.82440220  0.51241275    -0.58300
O310        O  0.91559377  0.77062691  0.46267002    -0.56800
O311        O  0.88810807  0.89396045  0.46603409    -0.56800
O312        O  0.92726952  0.81461613  0.53052424    -0.55900
C313        C  0.92681072  0.95937004  0.36399027    -0.05100
C314        C  0.92557887  0.99022901  0.38529265     0.00800
C315        C  0.90420391  0.99068478  0.41670812    -0.07800
C316        C  0.89052142  0.95851406  0.42947973    -0.05100
C317        C  0.89670378  0.92616082  0.41124593     0.00800
C318        C  0.91324160  0.92687489  0.37660083    -0.07700
C319        C  0.91978166  0.89350999  0.35428367     0.62700
H320        H  0.94230766  0.95992296  0.33928653     0.13400
H321        H  0.87651597  0.95851395  0.45511957     0.13400
C322        C  0.89714309  0.02418036  0.43838544     0.62900
F323        F  0.93479705  0.90101386  0.32102658    -0.22200
F324        F  0.88757614  0.87633532  0.34806262    -0.19600
F325        F  0.94324556  0.87118448  0.37235158    -0.19200
F326        F  0.90252441  0.05431538  0.41796878    -0.19300
F327        F  0.91970825  0.02495073  0.46806384    -0.19600
F328        F  0.86183042  0.02479116  0.45014795    -0.22300
C329        C  0.12899587  0.02549706  0.50676666    -0.05100
C330        C  0.10591155  0.02399925  0.53670472     0.00800
C331        C  0.07238062  0.04182229  0.53497533    -0.07800
C332        C  0.05981942  0.05315056  0.50120182    -0.05100
C333        C  0.08054933  0.04921225  0.46965083     0.00800
C334        C  0.11713888  0.03850673  0.47316895    -0.07700
C335        C  0.14341484  0.03926345  0.44188311     0.62700
H336        H  0.15541827  0.01353686  0.50885063     0.13400
H337        H  0.03266553  0.06355044  0.49925261     0.13400
C338        C  0.04850887  0.04709476  0.56773262     0.62900
F339        F  0.17840225  0.03300559  0.45317087    -0.22200
F340        F  0.14254559  0.07233641  0.42588190    -0.19600
F341        F  0.13459961  0.01346057  0.41676885    -0.19200
F342        F  0.06907907  0.05248471  0.59843391    -0.19300
F343        F  0.02698672  0.01766459  0.57227854    -0.19600
F344        F  0.02657921  0.07660396  0.56354653    -0.22300
C345        C  0.99246873  0.90274949  0.59959351    -0.05100
C346        C  0.02329575  0.88093560  0.60092570     0.00800
C347        C  0.01969174  0.84442853  0.59155665    -0.07800
C348        C  0.98731162  0.83299229  0.57548129    -0.05100
C349        C  0.95876583  0.85661164  0.56860915     0.00800
C350        C  0.96002601  0.89107380  0.58410911    -0.07700
C351        C  0.92822610  0.91646333  0.58279884     0.62700
H352        H  0.99443748  0.93010472  0.60848272     0.13400
H353        H  0.98539350  0.80606606  0.56533560     0.13400
C354        C  0.05002191  0.81773857  0.59655715     0.62900
F355        F  0.93106523  0.94259711  0.60904585    -0.22200
F356        F  0.89653088  0.89838827  0.58890066    -0.19600
F357        F  0.92674427  0.93273080  0.54946835    -0.19200
F358        F  0.06386581  0.82052801  0.63114625    -0.19300
F359        F  0.07685027  0.82380083  0.57158275    -0.19600
F360        F  0.03829536  0.78321127  0.59185559    -0.22300
C361        C  0.96571556  0.72489478  0.42229439    -0.05100
C362        C  0.97378971  0.75786346  0.43780380     0.00800
C363        C  0.00949978  0.76495431  0.44920367    -0.07800
C364        C  0.03534253  0.73764472  0.44682179    -0.05100
C365        C  0.02672620  0.70369001  0.43374727     0.00800
C366        C  0.99151269  0.69745927  0.41996183    -0.07700
C367        C  0.97997594  0.66147014  0.40543771     0.62700
H368        H  0.93827599  0.72024994  0.41371210     0.13400
H369        H  0.06234750  0.74216582  0.45675409     0.13400
C370        C  0.01993402  0.80041464  0.46584154     0.62900
F371        F  0.94467469  0.66178953  0.39346236    -0.22200
F372        F  0.98280638  0.63637243  0.43239016    -0.19600
F373        F  0.00138623  0.65169667  0.37653750    -0.19200
F374        F  0.99763766  0.80837415  0.49457190    -0.19300
F375        F  0.01698482  0.82676931  0.44018501    -0.19600
F376        F  0.05493872  0.80023547  0.47864065    -0.22300
C377        C  0.98542036  0.54224605  0.58379457    -0.05100
C378        C  0.95077381  0.55357298  0.57360881     0.00800
C379        C  0.94712843  0.58353538  0.55074587    -0.07800
C380        C  0.97842715  0.59879384  0.53660497    -0.05100
C381        C  0.01287796  0.58481225  0.54348815     0.00800
C382        C  0.01672094  0.55731746  0.56919072    -0.07700
C383        C  0.05322581  0.54267396  0.58010194     0.62700
H384        H  0.98777334  0.52001650  0.60204896     0.13400
H385        H  0.97603403  0.62071573  0.51797438     0.13400
C386        C  0.91075106  0.59826056  0.53912561     0.62900
F387        F  0.05044920  0.51685146  0.60637719    -0.22200
F388        F  0.07412991  0.56977151  0.59396622    -0.19600
F389        F  0.07011895  0.52759736  0.55049394    -0.19200
F390        F  0.91405275  0.62716773  0.51645562    -0.19300
F391        F  0.89158424  0.60931081  0.56912270    -0.19600
F392        F  0.89166224  0.57248180  0.52068857    -0.22300
C393        C  0.97657114  0.22248060  0.32978307    -0.05100
C394        C  0.00567809  0.24430855  0.33962019     0.00800
C395        C  0.03864274  0.22777761  0.35011311    -0.07800
C396        C  0.04041889  0.19035815  0.35171285    -0.05100
C397        C  0.01064210  0.16890237  0.34382561     0.00800
C398        C  0.97839863  0.18515800  0.33160538    -0.07700
C399        C  0.94615956  0.16333767  0.31972952     0.62700
H400        H  0.95171010  0.23494875  0.32128012     0.13400
H401        H  0.06492977  0.17746073  0.36061943     0.13400
C402        C  0.07166978  0.24903589  0.36075540     0.62900
F403        F  0.92001934  0.18404815  0.30339153    -0.22200
F404        F  0.93065422  0.14719666  0.34922980    -0.19600
F405        F  0.95697465  0.13772179  0.29507283    -0.19200
F406        F  0.06399197  0.26999259  0.39056849    -0.19300
F407        F  0.08216943  0.27012883  0.33226884    -0.19600
F408        F  0.10055472  0.22742707  0.36961635    -0.22300
C409        C  0.05812278  0.47491091  0.35765145    -0.05100
C410        C  0.05632794  0.44559769  0.38085362     0.00800
C411        C  0.07003484  0.44875055  0.41637973    -0.07800
C412        C  0.08382619  0.48164738  0.42774275    -0.05100
C413        C  0.08255930  0.51202224  0.40575314     0.00800
C414        C  0.07056250  0.50831981  0.36942094    -0.07700
C415        C  0.06885838  0.53940195  0.34346876     0.62700
H416        H  0.04753112  0.47188930  0.33056262     0.13400
H417        H  0.09365781  0.48434167  0.45511916     0.13400
C418        C  0.06735791  0.41863033  0.44330838     0.62900
F419        F  0.05825682  0.52901953  0.30916603    -0.22200
F420        F  0.10242517  0.55473869  0.34055282    -0.19600
F421        F  0.04423476  0.56429783  0.35577833    -0.19200
F422        F  0.08687687  0.38966666  0.43108629    -0.19300
F423        F  0.03171851  0.40922138  0.44759418    -0.19600
F424        F  0.08069437  0.42804046  0.47691963    -0.22300
C425        C  0.93713217  0.36652521  0.48079624    -0.05100
C426        C  0.91947320  0.37277224  0.44777758     0.00800
C427        C  0.88514647  0.38956996  0.44819392    -0.07800
C428        C  0.87196610  0.40286995  0.48123442    -0.05100
C429        C  0.89197672  0.40057281  0.51338699     0.00800
C430        C  0.92405500  0.38011801  0.51369039    -0.07700
C431        C  0.94487811  0.37289523  0.54820326     0.62700
H432        H  0.96262244  0.35249795  0.48049788     0.13400
H433        H  0.84700052  0.41777458  0.48156682     0.13400
C434        C  0.86322189  0.39556748  0.41406185     0.62900
F435        F  0.97044196  0.34644603  0.54335261    -0.22200
F436        F  0.92156084  0.36193858  0.57491697    -0.19600
F437        F  0.96251914  0.40320730  0.55941763    -0.19200
F438        F  0.85680473  0.36343094  0.39708956    -0.19300
F439        F  0.88161996  0.41777166  0.39102696    -0.19600
F440        F  0.83018536  0.41115773  0.42129760    -0.22300
C441        C  0.71361022  0.51510491  0.49922349    -0.05100
C442        C  0.72522098  0.51655132  0.46324625     0.00800
C443        C  0.76207261  0.52155791  0.45570994    -0.07800
C444        C  0.78662505  0.52090968  0.48462285    -0.05100
C445        C  0.77527101  0.51537356  0.52039862     0.00800
C446        C  0.73800908  0.51430807  0.52810536    -0.07700
C447        C  0.72373198  0.51170518  0.56635215     0.62700
H448        H  0.68518033  0.51195400  0.50455351     0.13400
H449        H  0.81515364  0.52234518  0.47899444     0.13400
C450        C  0.77575569  0.52637998  0.41750955     0.62900
F451        F  0.68713970  0.51855618  0.56782836    -0.22200
F452        F  0.74077984  0.53626437  0.58825796    -0.19600
F453        F  0.72957001  0.47793747  0.57957778    -0.19200
F454        F  0.75266943  0.54809836  0.39820139    -0.19300
F455        F  0.77829966  0.49372964  0.40048475    -0.19600
F456        F  0.80937457  0.54199743  0.41737585    -0.22300
C457        C  0.26274745  0.63643841  0.51737473    -0.05100
C458        C  0.28479338  0.63295663  0.48673766     0.00800
C459        C  0.26835050  0.63303931  0.45203537    -0.07800
C460        C  0.23046781  0.63364777  0.44983736    -0.05100
C461        C  0.20843307  0.63398329  0.48071183     0.00800
C462        C  0.22499536  0.63694067  0.51521332    -0.07700
C463        C  0.20355725  0.63998288  0.55001251     0.62700
H464        H  0.27538361  0.63738780  0.54368804     0.13400
H465        H  0.21769394  0.63227249  0.42360722     0.13400
C466        C  0.29005823  0.63145222  0.41731728     0.62900
F467        F  0.22523784  0.64787500  0.57938858    -0.22200
F468        F  0.18666145  0.60816449  0.55698189    -0.19600
F469        F  0.17827178  0.66687346  0.54712232    -0.19200
F470        F  0.30878722  0.59969450  0.41534202    -0.19300
F471        F  0.31384326  0.65951677  0.41632025    -0.19600
F472        F  0.26840819  0.63371122  0.38695485    -0.22300
C473        C  0.55163358  0.57913591  0.42904621    -0.05100
C474        C  0.54669094  0.54956892  0.40637797     0.00800
C475        C  0.51133366  0.54027728  0.39541729    -0.07800
C476        C  0.48200371  0.55854511  0.41085200    -0.05100
C477        C  0.48708966  0.58500658  0.43705419     0.00800
C478        C  0.52233846  0.59695114  0.44490231    -0.07700
C479        C  0.52935821  0.62694194  0.47153269     0.62700
H480        H  0.57871743  0.58645698  0.43679556     0.13400
H481        H  0.45483854  0.54996536  0.40496533     0.13400
C482        C  0.50405217  0.50982971  0.36948002     0.62900
F483        F  0.56360204  0.64057057  0.46747252    -0.22200
F484        F  0.52617610  0.61457698  0.50642605    -0.19600
F485        F  0.50504133  0.65433891  0.46616903    -0.19200
F486        F  0.50720491  0.47795075  0.38755322    -0.19300
F487        F  0.52812393  0.51043095  0.34105813    -0.19600
F488        F  0.46973668  0.51200913  0.35508556    -0.22300
C489        C  0.40647485  0.47318065  0.51895576    -0.05100
C490        C  0.39222083  0.49727594  0.54433108     0.00800
C491        C  0.38409983  0.48501321  0.57952444    -0.07800
C492        C  0.39614723  0.45095193  0.58960266    -0.05100
C493        C  0.41553785  0.42915155  0.56554835     0.00800
C494        C  0.41774763  0.43902081  0.52876634    -0.07700
C495        C  0.43456181  0.41526246  0.50009084     0.62700
H496        H  0.41138107  0.48199363  0.49164569     0.13400
H497        H  0.39332083  0.44260400  0.61736099     0.13400
C498        C  0.36383435  0.50770490  0.60674362     0.62900
F499        F  0.42201961  0.42395691  0.46604283    -0.22200
F500        F  0.42599227  0.38011687  0.50616387    -0.19600
F501        F  0.47152110  0.41921175  0.50040476    -0.19200
F502        F  0.33391765  0.52277490  0.59054985    -0.19300
F503        F  0.38591890  0.53413928  0.61999169    -0.19600
F504        F  0.35207850  0.48779296  0.63567569    -0.22300
C505        C  0.55866273  0.36321186  0.49196084    -0.05100
C506        C  0.57203573  0.36888957  0.52715423     0.00800
C507        C  0.60658298  0.38447035  0.53113120    -0.07800
C508        C  0.62316056  0.39919279  0.50053902    -0.05100
C509        C  0.60701584  0.39797692  0.46621841     0.00800
C510        C  0.57597931  0.37683898  0.46127712    -0.07700
C511        C  0.56056052  0.36911756  0.42407681     0.62700
H512        H  0.53328109  0.34966508  0.48853028     0.13400
H513        H  0.64783092  0.41397983  0.50385973     0.13400
C514        C  0.62583065  0.38663475  0.56726124     0.62900
F515        F  0.53743927  0.34047548  0.42471565    -0.22200
F516        F  0.58804860  0.36095628  0.40022574    -0.19600
F517        F  0.54157422  0.39826180  0.41169055    -0.19200
F518        F  0.62592816  0.35363377  0.58344587    -0.19300
F519        F  0.60892424  0.41114543  0.58945405    -0.19600
F520        F  0.66128135  0.39697594  0.56341622    -0.22300
C521        C  0.47934332  0.46636102  0.75753651    -0.05100
C522        C  0.50775255  0.49066879  0.75747852     0.00800
C523        C  0.53534818  0.48681914  0.73146961    -0.07800
C524        C  0.53291352  0.45897226  0.70584026    -0.05100
C525        C  0.50413341  0.43469658  0.70560395     0.00800
C526        C  0.47694124  0.43829167  0.73252108    -0.07700
C527        C  0.44528260  0.41300525  0.73557438     0.62700
H528        H  0.45887045  0.46935102  0.77810215     0.13400
H529        H  0.55358999  0.45617830  0.68548878     0.13400
C530        C  0.56656425  0.51248916  0.73004859     0.62900
F531        F  0.42419467  0.42024263  0.76552704    -0.22200
F532        F  0.45768973  0.37849262  0.73881745    -0.19600
F533        F  0.42346131  0.41598769  0.70545360    -0.19200
F534        F  0.58769784  0.50870158  0.76052647    -0.19300
F535        F  0.55364560  0.54692831  0.72834627    -0.19600
F536        F  0.58810635  0.50654422  0.70015636    -0.22300
C537        C  0.67190634  0.48921296  0.25584867    -0.05100
C538        C  0.65944329  0.46132175  0.27750423     0.00800
C539        C  0.64887154  0.42901675  0.26070934    -0.07800
C540        C  0.65127339  0.42607721  0.22296984    -0.05100
C541        C  0.66238098  0.45435780  0.20117751     0.00800
C542        C  0.67329983  0.48655220  0.21790114    -0.07700
C543        C  0.68641315  0.51803105  0.19623815     0.62700
H544        H  0.67982948  0.51370822  0.26895889     0.13400
H545        H  0.64286820  0.40171568  0.20993043     0.13400
C546        C  0.63334252  0.39818375  0.28185020     0.62900
F547        F  0.69976558  0.54472776  0.21823537    -0.22200
F548        F  0.65832401  0.53221260  0.17641936    -0.19600
F549        F  0.71369515  0.50733244  0.17323181    -0.19200
F550        F  0.60391014  0.40963974  0.30162115    -0.19300
F551        F  0.65920800  0.38442047  0.30476788    -0.19600
F552        F  0.62192045  0.37090034  0.25949654    -0.22300
C553        C  0.57967266  0.53362623  0.01068659    -0.05100
C554        C  0.60840606  0.51038363  0.00355584     0.00800
C555        C  0.62202004  0.50787630  0.96789433    -0.07800
C556        C  0.60266621  0.52397758  0.93974939    -0.05100
C557        C  0.57098133  0.54340093  0.94622822     0.00800
C558        C  0.56081955  0.55065634  0.98257568    -0.07700
C559        C  0.52972157  0.57526658  0.99205048     0.62700
H560        H  0.57033261  0.53639335  0.03824500     0.13400
H561        H  0.61113407  0.51933792  0.91214754     0.13400
C562        C  0.65551808  0.48654844  0.95863104     0.62900
F563        F  0.53056902  0.58518109  0.02808247    -0.22200
F564        F  0.49738212  0.55844840  0.98557767    -0.19600
F565        F  0.53158700  0.60587123  0.97169202    -0.19200
F566        F  0.64641958  0.45136711  0.95360149    -0.19300
F567        F  0.68092260  0.48925245  0.98584690    -0.19600
F568        F  0.67116668  0.49880515  0.92723753    -0.22300
C569        C  0.51148115  0.39686501  0.09645055    -0.05100
C570        C  0.54246919  0.37561360  0.09232699     0.00800
C571        C  0.53835207  0.33873362  0.08507345    -0.07800
C572        C  0.50368120  0.32594406  0.07738467    -0.05100
C573        C  0.47370979  0.34873113  0.07617497     0.00800
C574        C  0.47705194  0.38392817  0.08893507    -0.07700
C575        C  0.44525602  0.40912774  0.09178825     0.62700
H576        H  0.51424113  0.42469287  0.10334709     0.13400
H577        H  0.50043685  0.29868974  0.06858916     0.13400
C578        C  0.56993711  0.31299722  0.08368717     0.62900
F579        F  0.45120147  0.43451899  0.11825655    -0.22200
F580        F  0.41434949  0.39100350  0.10090839    -0.19600
F581        F  0.44016638  0.42611785  0.05917638    -0.19200
F582        F  0.59059198  0.31659178  0.11456140    -0.19300
F583        F  0.59073831  0.31954123  0.05357967    -0.19600
F584        F  0.55867977  0.27805836  0.08171205    -0.22300
C585        C  0.39612994  0.43827530  0.93776614    -0.05100
C586        C  0.40688801  0.40516475  0.92348219     0.00800
C587        C  0.42630724  0.40420612  0.89047909    -0.07800
C588        C  0.43825379  0.43635641  0.87595024    -0.05100
C589        C  0.43108750  0.46912131  0.89270786     0.00800
C590        C  0.40793628  0.47046942  0.92294422    -0.07700
C591        C  0.39758048  0.50532359  0.94092579     0.62700
H592        H  0.38022860  0.43884896  0.96219687     0.13400
H593        H  0.45511238  0.43598450  0.85212065     0.13400
C594        C  0.43593097  0.36983475  0.87099910     0.62900
F595        F  0.37479599  0.50037855  0.96996338    -0.22200
F596        F  0.37995411  0.52679555  0.91638564    -0.19600
F597        F  0.42810219  0.52228623  0.95337632    -0.19200
F598        F  0.40613195  0.34810291  0.86884988    -0.19300
F599        F  0.46338135  0.35260000  0.88919049    -0.19600
F600        F  0.44746719  0.37595243  0.83607577    -0.22300
C601        C  0.76203460  0.38037781  0.97029783    -0.00300
C602        C  0.79481585  0.39667549  0.97879302     0.00800
C603        C  0.79980500  0.41149280  0.01383259    -0.07800
C604        C  0.77027504  0.41294849  0.03739868    -0.05100
C605        C  0.73664356  0.39917475  0.02779144     0.00800
C606        C  0.73290952  0.38060055  0.99451684    -0.07700
C607        C  0.69824307  0.36216632  0.98376991     0.62700
H608        H  0.75908939  0.36831879  0.94386562     0.13400
H609        H  0.77287639  0.42605767  0.06335135     0.13400
C610        C  0.83537742  0.42718790  0.02611352     0.62900
F611        F  0.70090089  0.34583229  0.95029798    -0.22200
F612        F  0.67033809  0.38648130  0.98218788    -0.19600
F613        F  0.69028848  0.33627283  0.00877120    -0.19200
F614        F  0.84522610  0.45432624  0.00336823    -0.19300
F615        F  0.86164010  0.40107161  0.02593616    -0.19600
F616        F  0.83350289  0.44101378  0.06078396    -0.22300
C617        C  0.83866497  0.42018078  0.75894912    -0.05100
C618        C  0.84154372  0.44901537  0.78293574     0.00800
C619        C  0.84023574  0.48400198  0.76873740    -0.07800
C620        C  0.84029829  0.48835576  0.73093870    -0.05100
C621        C  0.84108292  0.45930191  0.70687296     0.00800
C622        C  0.83828053  0.42447961  0.72126094    -0.07700
C623        C  0.83564685  0.39152246  0.69758539     0.62700
H624        H  0.83850466  0.39365415  0.76994351     0.13400
H625        H  0.84121069  0.51486109  0.71992397     0.13400
C626        C  0.83901350  0.51682788  0.79280416     0.62900
F627        F  0.82808766  0.36146510  0.71746946    -0.22200
F628        F  0.86795995  0.38571971  0.68006910    -0.19600
F629        F  0.80829366  0.39569114  0.67259439    -0.19200
F630        F  0.87170682  0.52126788  0.81003697    -0.19300
F631        F  0.81199112  0.51344904  0.81815990    -0.19600
F632        F  0.83198020  0.54732067  0.77328213    -0.22300
C633        C  0.22932922  0.28047212  0.04140750    -0.05100
C634        C  0.20867862  0.28349613  0.00974813     0.00800
C635        C  0.22641360  0.28802248  0.97615344    -0.07800
C636        C  0.26413344  0.29018180  0.97589682    -0.05100
C637        C  0.28454613  0.28939585  0.00780174     0.00800
C638        C  0.26698129  0.28369113  0.04122007    -0.07700
C639        C  0.28736360  0.28167060  0.07674724     0.62700
H640        H  0.21548754  0.27701394  0.06682421     0.13400
H641        H  0.27797782  0.29435921  0.95061080     0.13400
C642        C  0.20600252  0.29270073  0.94086625     0.62900
F643        F  0.26579537  0.26974381  0.10452714    -0.22200
F644        F  0.29971589  0.31501149  0.08617470    -0.19600
F645        F  0.31611707  0.25841874  0.07359898    -0.19200
F646        F  0.18300139  0.32158037  0.94352057    -0.19300
F647        F  0.18653308  0.26242948  0.93319110    -0.19600
F648        F  0.22881016  0.29861757  0.91204465    -0.22300
C649        C  0.02758764  0.34551977  0.90651982    -0.05100
C650        C  0.02132922  0.31638737  0.92892516     0.00800
C651        C  0.98714400  0.30000743  0.92820631    -0.07800
C652        C  0.95847540  0.31786408  0.91150928    -0.05100
C653        C  0.96341949  0.35059257  0.89433130     0.00800
C654        C  0.99914149  0.36259825  0.88833777    -0.07700
C655        C  0.00754410  0.39416523  0.86459432     0.62700
H656        H  0.05421640  0.35704949  0.90608306     0.13400
H657        H  0.93162565  0.30710541  0.91408316     0.13400
C658        C  0.97929894  0.26442852  0.94539023     0.62900
F659        F  0.04344310  0.39444738  0.85477172    -0.22200
F660        F  0.00020164  0.42544023  0.88280728    -0.19600
F661        F  0.98728075  0.39260909  0.83326856    -0.19200
F662        F  0.95580073  0.26922315  0.97389949    -0.19300
F663        F  0.00993965  0.24738144  0.95769983    -0.19600
F664        F  0.96335134  0.24245457  0.92004523    -0.22300
C665        C  0.96568984  0.44219702  0.19505865    -0.05100
C666        C  0.95695132  0.47667384  0.20669781     0.00800
C667        C  0.94529106  0.48251223  0.24245741    -0.07800
C668        C  0.94477845  0.45356591  0.26624230    -0.05100
C669        C  0.95654057  0.41953354  0.25550239     0.00800
C670        C  0.96605398  0.41336193  0.21897959    -0.07700
C671        C  0.97617183  0.37667899  0.20510146     0.62700
H672        H  0.97429752  0.43838480  0.16736597     0.13400
H673        H  0.93742840  0.45791691  0.29420917     0.13400
C674        C  0.93369437  0.51910350  0.25533900     0.62900
F675        F  0.97909947  0.37592230  0.16784210    -0.22200
F676        F  0.94998455  0.35268447  0.21487883    -0.19600
F677        F  0.00889024  0.36619927  0.21932619    -0.19200
F678        F  0.90834174  0.53292053  0.23184926    -0.19300
F679        F  0.96305020  0.54141375  0.25669195    -0.19600
F680        F  0.91856655  0.51806959  0.28942157    -0.22300
C681        C  0.07554199  0.47296430  0.05817195    -0.05100
C682        C  0.07331585  0.47614450  0.09582328     0.00800
C683        C  0.08370968  0.44716107  0.11763235    -0.07800
C684        C  0.09072662  0.41436919  0.10099631    -0.05100
C685        C  0.08927904  0.40996932  0.06328122     0.00800
C686        C  0.08301067  0.44025470  0.04123226    -0.07700
C687        C  0.08183222  0.43824128  0.00020089     0.62700
H688        H  0.06779096  0.49556409  0.04195066     0.13400
H689        H  0.09664325  0.39172509  0.11795661     0.13400
C690        C  0.08636871  0.44927447  0.15847949     0.62900
F691        F  0.07538638  0.47103553  0.98476370    -0.22200
F692        F  0.05453904  0.41580469  0.98918326    -0.19600
F693        F  0.11449607  0.42599561  0.98721692    -0.19200
F694        F  0.05709802  0.43251885  0.17364925    -0.19300
F695        F  0.08776854  0.48391318  0.17094262    -0.19600
F696        F  0.11748503  0.43241969  0.16988985    -0.22300
C697        C  0.88811155  0.52252088  0.98474374    -0.05100
C698        C  0.91213979  0.50954445  0.95855148     0.00800
C699        C  0.94915756  0.51752009  0.96190204    -0.07800
C700        C  0.96145184  0.53225591  0.99441421    -0.05100
C701        C  0.93798197  0.54024058  0.02313016     0.00800
C702        C  0.90032095  0.53762638  0.01730754    -0.07700
C703        C  0.87291277  0.54913538  0.04540243     0.62700
H704        H  0.85963803  0.51796832  0.98100172     0.13400
H705        H  0.99014538  0.53548777  0.99813928     0.13400
C706        C  0.97647568  0.50866092  0.93280488     0.62900
F707        F  0.83833075  0.54955084  0.03148397    -0.22200
F708        F  0.88060727  0.58308958  0.05738013    -0.19600
F709        F  0.87349865  0.52589803  0.07414954    -0.19200
F710        F  0.96172330  0.51336428  0.89883931    -0.19300
F711        F  0.98790486  0.47393072  0.93663897    -0.19600
F712        F  0.00617459  0.53054156  0.93540270    -0.22300
C713        C  0.17003696  0.98166220  0.77765505    -0.05100
C714        C  0.14963143  0.95860576  0.79904134     0.00800
C715        C  0.13232350  0.92918716  0.78241404    -0.07800
C716        C  0.13446006  0.92540759  0.74475414    -0.05100
C717        C  0.15288983  0.94972023  0.72317008     0.00800
C718        C  0.17236576  0.97758731  0.73991629    -0.07700
C719        C  0.19616834  0.00241285  0.71857101     0.62700
H720        H  0.18373488  0.00350543  0.79077125     0.13400
H721        H  0.12023649  0.90396277  0.73154487     0.13400
C722        C  0.11043427  0.90245800  0.80358865     0.62900
F723        F  0.21711952  0.02340314  0.74099973    -0.22200
F724        F  0.17530292  0.02461336  0.69752606    -0.19600
F725        F  0.21906529  0.98284525  0.69672199    -0.19200
F726        F  0.08366476  0.91971586  0.82284022    -0.19300
F727        F  0.13272352  0.88417607  0.82699262    -0.19600
F728        F  0.09401164  0.87773680  0.78128835    -0.22300
C729        C  0.04535042  0.91237264  0.26990115    -0.05100
C730        C  0.05101076  0.92200609  0.23384363     0.00800
C731        C  0.06091302  0.95745615  0.22589790    -0.07800
C732        C  0.06085886  0.98276448  0.25404741    -0.05100
C733        C  0.05281101  0.97360242  0.28978874     0.00800
C734        C  0.04686313  0.93735366  0.29828257    -0.07700
C735        C  0.04069575  0.92501636  0.33674724     0.62700
H736        H  0.03863487  0.88503485  0.27554070     0.13400
H737        H  0.06609414  0.01037295  0.24816519     0.13400
C738        C  0.07001565  0.96906755  0.18780490     0.62900
F739        F  0.03485941  0.88880593  0.33850517    -0.22200
F740        F  0.01096207  0.94198278  0.35123132    -0.19600
F741        F  0.07067739  0.93253854  0.35749753    -0.19200
F742        F  0.04104391  0.96322290  0.16510122    -0.19300
F743        F  0.09955206  0.95011754  0.17550096    -0.19600
F744        F  0.07844118  0.00475972  0.18630121    -0.22300
C745        C  0.03606273  0.71844872  0.15963088    -0.05100
C746        C  0.00377244  0.73777166  0.16298206     0.00800
C747        C  0.97098676  0.71898057  0.16653088    -0.07800
C748        C  0.97171181  0.68177151  0.16347806    -0.05100
C749        C  0.00368893  0.66262386  0.15702721     0.00800
C750        C  0.03684059  0.68125828  0.15651243    -0.07700
C751        C  0.07300599  0.66277741  0.15162800     0.62700
H752        H  0.06100651  0.73295321  0.15771303     0.13400
H753        H  0.94666218  0.66737747  0.16486664     0.13400
C754        C  0.93521960  0.73752431  0.17340862     0.62900
F755        F  0.10148688  0.68614126  0.15459620    -0.22200
F756        F  0.07474183  0.64725858  0.11774999    -0.19600
F757        F  0.07758333  0.63722234  0.17791097    -0.19200
F758        F  0.92486365  0.75642362  0.14322406    -0.19300
F759        F  0.93834133  0.76023768  0.20268957    -0.19600
F760        F  0.90811195  0.71366009  0.18102783    -0.22300
C761        C  0.08110135  0.88196663  0.98528504    -0.05100
C762        C  0.11001975  0.90489699  0.99127337     0.00800
C763        C  0.12614503  0.90659624  0.02580775    -0.07800
C764        C  0.10928817  0.88947299  0.05461163    -0.05100
C765        C  0.07753844  0.86999494  0.04969505     0.00800
C766        C  0.06467808  0.86390796  0.01398430    -0.07700
C767        C  0.03264967  0.84036793  0.00584650     0.62700
H768        H  0.06946825  0.88059307  0.95846564     0.13400
H769        H  0.12015722  0.89306225  0.08156121     0.13400
C770        C  0.16035667  0.92697911  0.03380977     0.62900
F771        F  0.03188009  0.83033850  0.96983267    -0.22200
F772        F  0.00113906  0.85850707  0.01350661    -0.19600
F773        F  0.03439904  0.80971687  0.02616353    -0.19200
F774        F  0.15220040  0.95636634  0.05480332    -0.19300
F775        F  0.17774795  0.93799624  0.00290744    -0.19600
F776        F  0.18397231  0.90542162  0.05264759    -0.22300
C777        C  0.96274352  0.20751675  0.07470419    -0.05100
C778        C  0.97250754  0.17148815  0.07413720     0.00800
C779        C  0.00953776  0.16211327  0.07734232    -0.07800
C780        C  0.03535799  0.18910326  0.07442658    -0.05100
C781        C  0.02538314  0.22477604  0.07079350     0.00800
C782        C  0.98859103  0.23455025  0.07379007    -0.07700
C783        C  0.97626675  0.27309197  0.07384444     0.62700
H784        H  0.93443859  0.21436720  0.07400157     0.13400
H785        H  0.06369795  0.18240523  0.07328464     0.13400
C786        C  0.02228769  0.12410039  0.08258633     0.62900
F787        F  0.93933772  0.27626351  0.07740065    -0.22200
F788        F  0.98590028  0.28914493  0.04191560    -0.19600
F789        F  0.99190360  0.29094364  0.10251225    -0.19200
F790        F  0.01430474  0.10379373  0.05249089    -0.19300
F791        F  0.00574729  0.10990505  0.11257657    -0.19600
F792        F  0.05907862  0.12215032  0.08820045    -0.22300
C793        C  0.96254679  0.03864232  0.92675025    -0.05100
C794        C  0.96394465  0.07228498  0.94306001     0.00800
C795        C  0.99539102  0.09303693  0.93905790    -0.07800
C796        C  0.02626519  0.07680828  0.92424413    -0.05100
C797        C  0.02632791  0.04105489  0.91311436     0.00800
C798        C  0.99304864  0.02283097  0.91101981    -0.07700
C799        C  0.98951535  0.98626234  0.89403525     0.62700
H800        H  0.93789105  0.02353184  0.92882502     0.13400
H801        H  0.05139318  0.09122798  0.92401617     0.13400
C802        C  0.99728905  0.13119343  0.95238875     0.62900
F803        F  0.95403518  0.97871221  0.88574127    -0.22200
F804        F  0.00190701  0.96069399  0.91768518    -0.19600
F805        F  0.00893880  0.98453007  0.86224636    -0.19200
F806        F  0.99282460  0.13255968  0.98936798    -0.19300
F807        F  0.97057187  0.15106285  0.93596701    -0.19600
F808        F  0.02998976  0.14665370  0.94443521    -0.22300
C809        C  0.93685095  0.96014154  0.14007015    -0.05100
C810        C  0.93320795  0.92929137  0.11897568     0.00800
C811        C  0.91282018  0.93061865  0.08671113    -0.07800
C812        C  0.90064976  0.96378743  0.07451006    -0.05100
C813        C  0.90786322  0.99533620  0.09358806     0.00800
C814        C  0.92462980  0.99337767  0.12799793    -0.07700
C815        C  0.93158553  0.02603942  0.15118848     0.62700
H816        H  0.95191356  0.95850644  0.16505657     0.13400
H817        H  0.88671891  0.96540956  0.04886059     0.13400
C818        C  0.90383091  0.89747251  0.06511711     0.62900
F819        F  0.94811953  0.01757849  0.18355649    -0.22200
F820        F  0.89931624  0.04268016  0.15921738    -0.19600
F821        F  0.95380981  0.04921245  0.13306657    -0.19200
F822        F  0.89202006  0.87119996  0.08808233    -0.19300
F823        F  0.93379220  0.88556910  0.04657257    -0.19600
F824        F  0.87681598  0.90388466  0.04016862    -0.22300
C825        C  0.43489817  0.72100036  0.86515892    -0.05100
C826        C  0.46085199  0.74387258  0.85083855     0.00800
C827        C  0.49200299  0.72899913  0.83447530    -0.07800
C828        C  0.49596058  0.69177314  0.83338116    -0.05100
C829        C  0.47040493  0.66874505  0.84842561     0.00800
C830        C  0.43905185  0.68378051  0.86468120    -0.07700
C831        C  0.41010967  0.66127644  0.88215377     0.62700
H832        H  0.41137392  0.73274180  0.87769500     0.13400
H833        H  0.51976606  0.68033739  0.82112265     0.13400
C834        C  0.52099424  0.75199759  0.81789224     0.62900
F835        F  0.38285438  0.68175431  0.89710140    -0.22200
F836        F  0.42491689  0.64118897  0.90962052    -0.19600
F837        F  0.39470030  0.63927016  0.85651943    -0.19200
F838        F  0.53856126  0.77082539  0.84471663    -0.19300
F839        F  0.50568849  0.77531606  0.79350794    -0.19600
F840        F  0.54651830  0.73199806  0.79961578    -0.22300
C841        C  0.25465625  0.02438189  0.96571054    -0.05100
C842        C  0.21875829  0.03103267  0.97533129     0.00800
C843        C  0.21110987  0.04398816  0.01061407    -0.07800
C844        C  0.23858180  0.04282802  0.03677917    -0.05100
C845        C  0.27364296  0.03200982  0.02803176     0.00800
C846        C  0.28267285  0.02625889  0.99124402    -0.07700
C847        C  0.32128986  0.02100183  0.97900434     0.62700
H848        H  0.26042379  0.01628688  0.93821874     0.13400
H849        H  0.23246786  0.04870856  0.06475795     0.13400
C850        C  0.17408890  0.05758107  0.02126905     0.62900
F851        F  0.32384210  0.01824039  0.94181959    -0.22200
F852        F  0.33561161  0.99041269  0.99374967    -0.19600
F853        F  0.34149881  0.04991179  0.98980268    -0.19200
F854        F  0.16391880  0.08470642  0.99833645    -0.19300
F855        F  0.14928553  0.03044453  0.01932181    -0.19600
F856        F  0.17371166  0.07106106  0.05611282    -0.22300
C857        C  0.39196210  0.85621618  0.99755581    -0.05100
C858        C  0.37659640  0.86755426  0.96486029     0.00800
C859        C  0.34537095  0.88941290  0.96572459    -0.07800
C860        C  0.33339415  0.90236473  0.99930175    -0.05100
C861        C  0.35211883  0.89505211  0.03138646     0.00800
C862        C  0.37985351  0.86920694  0.03101003    -0.07700
C863        C  0.39833454  0.85676328  0.06521702     0.62700
H864        H  0.41515861  0.83868011  0.99675988     0.13400
H865        H  0.31136698  0.92125482  0.00020497     0.13400
C866        C  0.32636498  0.90151175  0.93154659     0.62900
F867        F  0.41315282  0.82327460  0.06047804    -0.22200
F868        F  0.37393742  0.85488075  0.09329103    -0.19600
F869        F  0.42555500  0.87997924  0.07438094    -0.19200
F870        F  0.31416589  0.87226342  0.91253981    -0.19300
F871        F  0.34976598  0.92067054  0.91030434    -0.19600
F872        F  0.29696102  0.92303750  0.93894764    -0.22300
C873        C  0.53129265  0.20767869  0.96157333    -0.05100
C874        C  0.51870189  0.17263592  0.96015027     0.00800
C875        C  0.48112232  0.16654242  0.95639472    -0.07800
C876        C  0.45748427  0.19566402  0.95884738    -0.05100
C877        C  0.47008352  0.23036334  0.96259921     0.00800
C878        C  0.50757640  0.23689720  0.96192897    -0.07700
C879        C  0.52255063  0.27431661  0.96316138     0.62700
H880        H  0.56000644  0.21195375  0.96347940     0.13400
H881        H  0.42868025  0.19156499  0.95858855     0.13400
C882        C  0.46552939  0.12974271  0.95076632     0.62900
F883        F  0.55977854  0.27443378  0.96271525    -0.22200
F884        F  0.51128962  0.29148241  0.99426441    -0.19600
F885        F  0.51068177  0.29298684  0.93336597    -0.19200
F886        F  0.47373628  0.10831134  0.97982513    -0.19300
F887        F  0.47948230  0.11502739  0.91950103    -0.19600
F888        F  0.42845897  0.13063437  0.94709658    -0.22300
C889        C  0.71734471  0.09086054  0.04319382    -0.05100
C890        C  0.70327148  0.10092617  0.00946201     0.00800
C891        C  0.72724982  0.11359493  0.98263434    -0.07800
C892        C  0.76415520  0.11578679  0.99086385    -0.05100
C893        C  0.77824566  0.10484676  0.02418902     0.00800
C894        C  0.75443223  0.09183924  0.05091760    -0.07700
C895        C  0.76785612  0.07736188  0.08678260     0.62700
H896        H  0.69898613  0.08100969  0.06338650     0.13400
H897        H  0.78271339  0.12527225  0.97066050     0.13400
C898        C  0.71463096  0.12427441  0.94518957     0.62900
F899        F  0.74036507  0.06288452  0.10700175    -0.22200
F900        F  0.78308445  0.10436031  0.10696430    -0.19600
F901        F  0.79311473  0.05088882  0.08076835    -0.19200
F902        F  0.68748300  0.14937592  0.94780530    -0.19300
F903        F  0.70226899  0.09469644  0.92682428    -0.19600
F904        F  0.74206945  0.13882388  0.92495048    -0.22300
C905        C  0.51411349  0.02304180  0.09169332    -0.05100
C906        C  0.51456128  0.05895654  0.08177165     0.00800
C907        C  0.48460532  0.08065788  0.09089845    -0.07800
C908        C  0.45258500  0.06422582  0.10146156    -0.05100
C909        C  0.45048442  0.02736638  0.10617578     0.00800
C910        C  0.48271817  0.00689987  0.10474659    -0.07700
C911        C  0.48448661  0.96838708  0.11657348     0.62700
H912        H  0.53774885  0.00686756  0.08666019     0.13400
H913        H  0.42855360  0.08034001  0.10454937     0.13400
C914        C  0.48484555  0.12076895  0.08817226     0.62900
F915        F  0.51968387  0.95665491  0.12003617    -0.22200
F916        F  0.46763267  0.94678950  0.09155366    -0.19600
F917        F  0.46810499  0.96491177  0.14985430    -0.19200
F918        F  0.47325690  0.13092061  0.05428156    -0.19300
F919        F  0.51888083  0.13403043  0.09462287    -0.19600
F920        F  0.46207736  0.13566372  0.11370617    -0.22300
C921        C  0.56320985  0.95810124  0.94691647    -0.05100
C922        C  0.56055984  0.99137896  0.93000691     0.00800
C923        C  0.54127328  0.99424179  0.89698744    -0.07800
C924        C  0.52333225  0.96417032  0.88373845    -0.05100
C925        C  0.52342511  0.93190287  0.90239782     0.00800
C926        C  0.54465462  0.92821650  0.93387782    -0.07700
C927        C  0.54592161  0.89376808  0.95489943     0.62700
H928        H  0.57849917  0.95613246  0.97173309     0.13400
H929        H  0.50728054  0.96609107  0.85939067     0.13400
C930        C  0.53739177  0.02904461  0.87676442     0.62900
F931        F  0.56685259  0.89662120  0.98571732    -0.22200
F932        F  0.56043685  0.86714305  0.93353620    -0.19600
F933        F  0.51156888  0.88441885  0.96533094    -0.19200
F934        F  0.57092940  0.04104508  0.86660698    -0.19300
F935        F  0.52073586  0.05405974  0.89855465    -0.19600
F936        F  0.51682459  0.02545560  0.84576440    -0.22300
C937        C  0.47716800  0.75154514  0.56673433    -0.05100
C938        C  0.51347684  0.74081624  0.56726201     0.00800
C939        C  0.52187364  0.70418706  0.56997675    -0.07800
C940        C  0.49380172  0.67946086  0.56707393    -0.05100
C941        C  0.45807505  0.69031198  0.56149304     0.00800
C942        C  0.44915772  0.72672454  0.56411104    -0.07700
C943        C  0.41050630  0.73960658  0.56268369     0.62700
H944        H  0.47076468  0.77960901  0.56567480     0.13400
H945        H  0.50005444  0.65135930  0.56614934     0.13400
C946        C  0.56014308  0.69104968  0.57537418     0.62900
F947        F  0.40697582  0.77264542  0.57888347    -0.22200
F948        F  0.38830269  0.71641043  0.58084656    -0.19600
F949        F  0.39940583  0.74208152  0.52716328    -0.19200
F950        F  0.57644109  0.71034935  0.60268329    -0.19300
F951        F  0.57952992  0.69463137  0.54383722    -0.19600
F952        F  0.56105991  0.65561884  0.58502177    -0.22300
C953        C  0.71310252  0.80000660  0.47800207    -0.05100
C954        C  0.70168449  0.80461245  0.51394594     0.00800
C955        C  0.72818236  0.80673554  0.54160636    -0.07800
C956        C  0.76475974  0.80654573  0.53179336    -0.05100
C957        C  0.77617359  0.80439030  0.49566782     0.00800
C958        C  0.74979303  0.79961304  0.46822655    -0.07700
C959        C  0.75973750  0.79496274  0.42870516     0.62700
H960        H  0.69277647  0.79749248  0.45721222     0.13400
H961        H  0.78501882  0.80915722  0.55262323     0.13400
C962        C  0.71849269  0.81044954  0.58132039     0.62900
F963        F  0.72974694  0.79057147  0.40694810    -0.22200
F964        F  0.78123126  0.76514936  0.42457436    -0.19600
F965        F  0.77786008  0.82456578  0.41669506    -0.19200
F966        F  0.69897424  0.78125931  0.59214338    -0.19300
F967        F  0.69852818  0.84108766  0.58677351    -0.19600
F968        F  0.74864565  0.81248895  0.60319989    -0.22300
C969        C  0.40694444  0.95917810  0.78518298    -0.05100
C970        C  0.41813430  0.92482216  0.77482226     0.00800
C971        C  0.42830394  0.91849477  0.73846547    -0.07800
C972        C  0.42893146  0.94726021  0.71443914    -0.05100
C973        C  0.42072065  0.98204565  0.72562209     0.00800
C974        C  0.40851264  0.98813020  0.76128219    -0.07700
C975        C  0.39738232  0.02489734  0.77411146     0.62700
H976        H  0.39906051  0.96371172  0.81295739     0.13400
H977        H  0.43798377  0.94304922  0.68696468     0.13400
C978        C  0.43848878  0.88172211  0.72480962     0.62900
F979        F  0.38091674  0.02393441  0.80757084    -0.22200
F980        F  0.37330691  0.03965800  0.74987842    -0.19600
F981        F  0.42727938  0.04637067  0.77693502    -0.19200
F982        F  0.41219126  0.85774669  0.73435085    -0.19300
F983        F  0.47107637  0.87131758  0.73940326    -0.19600
F984        F  0.44185108  0.88080040  0.68759860    -0.22300
C985        C  0.50267786  0.18662956  0.65478313    -0.05100
C986        C  0.46754629  0.17299948  0.65429855     0.00800
C987        C  0.43816079  0.19703231  0.65006746    -0.07800
C988        C  0.44546693  0.23336878  0.64521725    -0.05100
C989        C  0.48069732  0.24661718  0.64386461     0.00800
C990        C  0.50997003  0.22282136  0.64929681    -0.07700
C991        C  0.54891531  0.23478913  0.64769783     0.62700
H992        H  0.52485314  0.16828815  0.65846666     0.13400
H993        H  0.42340441  0.25185568  0.64153536     0.13400
C994        C  0.39924783  0.18481366  0.64922200     0.62900
F995        F  0.57281000  0.20671972  0.65131588    -0.22200
F996        F  0.55576940  0.25856311  0.67539402    -0.19600
F997        F  0.55554554  0.25062738  0.61479826    -0.19200
F998        F  0.39080572  0.16834987  0.68135042    -0.19300
F999        F  0.39415360  0.16151913  0.62070109    -0.19600
F1000       F  0.37540103  0.21281545  0.64479382    -0.22300
C1001       C  0.54018654  0.95328181  0.64561473    -0.05100
C1002       C  0.54530477  0.98488266  0.62649486     0.00800
C1003       C  0.56847314  0.98483100  0.59633183    -0.07800
C1004       C  0.58143627  0.95221265  0.58313148    -0.05100
C1005       C  0.57276261  0.91978470  0.59959690     0.00800
C1006       C  0.55319633  0.92043428  0.63259858    -0.07700
C1007       C  0.54351382  0.88684544  0.65280868     0.62700
H1008       H  0.52275629  0.95398142  0.66900381     0.13400
H1009       H  0.59715059  0.95198959  0.55851743     0.13400
C1010       C  0.57789696  0.01842322  0.57623749     0.62900
F1011       F  0.52509244  0.89415170  0.68445322    -0.22200
F1012       F  0.57448816  0.86848447  0.66192010    -0.19600
F1013       F  0.52174268  0.86567916  0.63147754    -0.19200
F1014       F  0.57752597  0.04758275  0.59910367    -0.19300
F1015       F  0.55349046  0.02371997  0.54858369    -0.19600
F1016       F  0.61204919  0.01572609  0.56162351    -0.22300
C1017       C  0.21759227  0.89161208  0.46644098    -0.05100
C1018       C  0.25353186  0.88541168  0.47614901     0.00800
C1019       C  0.26184996  0.87661548  0.51248520    -0.07800
C1020       C  0.23450230  0.87960757  0.53858935    -0.05100
C1021       C  0.19935576  0.88983983  0.52934607     0.00800
C1022       C  0.19008494  0.89367692  0.49233795    -0.07700
C1023       C  0.15197709  0.90219336  0.48008020     0.62700
H1024       H  0.21158079  0.89705969  0.43840263     0.13400
H1025       H  0.24080896  0.87580448  0.56685065     0.13400
C1026       C  0.29958767  0.86621314  0.52433200     0.62900
F1027       F  0.14946869  0.90518443  0.44292564    -0.22200
F1028       F  0.14067902  0.93403293  0.49509042    -0.19600
F1029       F  0.12915984  0.87530469  0.49055341    -0.19200
F1030       F  0.32277798  0.89434644  0.51950408    -0.19300
F1031       F  0.31132809  0.83729965  0.50432669    -0.19600
F1032       F  0.30079963  0.85676830  0.56037586    -0.22300
C1033       C  0.30524251  0.93268675  0.23195080    -0.05100
C1034       C  0.31578906  0.96665024  0.22080579     0.00800
C1035       C  0.32328078  0.99297386  0.24736512    -0.07800
C1036       C  0.32255583  0.98324405  0.28394646    -0.05100
C1037       C  0.31483885  0.94846865  0.29492827     0.00800
C1038       C  0.30435237  0.92307625  0.26856765    -0.07700
C1039       C  0.29254064  0.88589693  0.27852522     0.62700
H1040       H  0.29883475  0.91307547  0.21149275     0.13400
H1041       H  0.32971191  0.00261896  0.30435638     0.13400
C1042       C  0.33349199  0.03077446  0.23763150     0.62900
F1043       F  0.27691533  0.86841976  0.24955240    -0.22200
F1044       F  0.26735647  0.88751570  0.30593212    -0.19600
F1045       F  0.32195969  0.86617127  0.28962283    -0.19200
F1046       F  0.30560321  0.04665061  0.21884376    -0.19300
F1047       F  0.36430260  0.03057719  0.21675681    -0.19600
F1048       F  0.34024261  0.05143709  0.26788763    -0.22300
C1049       C  0.39921067  0.02412404  0.48085026    -0.05100
C1050       C  0.36396558  0.01146414  0.48375795     0.00800
C1051       C  0.34386487  0.01962367  0.51528205    -0.07800
C1052       C  0.36189725  0.03460998  0.54504385    -0.05100
C1053       C  0.39883215  0.04233145  0.54389926     0.00800
C1054       C  0.41716760  0.03961917  0.51026552    -0.07700
C1055       C  0.45601817  0.05094764  0.50518117     0.62700
H1056       H  0.41388863  0.01907142  0.45612828     0.13400
H1057       H  0.34750710  0.03830711  0.57017444     0.13400
C1058       C  0.30391541  0.01202144  0.51824475     0.62900
F1059       F  0.47879506  0.02717765  0.52217656    -0.22200
F1060       F  0.46097824  0.08468882  0.51916510    -0.19600
F1061       F  0.46551690  0.05185498  0.46907880    -0.19200
F1062       F  0.29852022  0.97632123  0.52450813    -0.19300
F1063       F  0.28655305  0.02180473  0.48673795    -0.19600
F1064       F  0.28837444  0.03099351  0.54634409    -0.22300
C1065       C  0.48036034  0.82680919  0.44777321    -0.05100
C1066       C  0.50945065  0.85037975  0.44942618     0.00800
C1067       C  0.50640648  0.88373072  0.43230041    -0.07800
C1068       C  0.47267121  0.89429159  0.41891282    -0.05100
C1069       C  0.44213445  0.87249988  0.42144664     0.00800
C1070       C  0.44662386  0.83707898  0.43386849    -0.07700
C1071       C  0.41615768  0.81037650  0.43402851     0.62700
H1072       H  0.48341190  0.80095245  0.46001226     0.13400
H1073       H  0.46971247  0.92071453  0.40794990     0.13400
C1074       C  0.53815530  0.90860646  0.42863107     0.62900
F1075       F  0.42786884  0.77688107  0.44401520    -0.22200
F1076       F  0.40156598  0.80756168  0.39977152    -0.19600
F1077       F  0.38990733  0.82097195  0.45824807    -0.19200
F1078       F  0.56855174  0.88964102  0.41865034    -0.19300
F1079       F  0.54438661  0.92592980  0.46101721    -0.19600
F1080       F  0.53190859  0.93399236  0.40245294    -0.22300
loop_ 
_geom_bond_atom_site_label_1 
_geom_bond_atom_site_label_2 
_geom_bond_distance 
_geom_bond_site_symmetry_2 
_ccdc_geom_bond_type 
O1            C4   1.265       .  A
O1           Cd6   2.486       .  S
C2           O11   1.268       .  A
C2            O7   1.265       .  A
C2         C1018   1.484       .  S
O3            C9   1.266       .  A
O3           Cd6   2.466       .  S
C4           O12   1.264       .  A
C4         C1069   1.494       .  S
C5           O10   1.264       .  A
C5            O8   1.264       .  A
C5         C1037   1.489       .  S
Cd6          O13   2.453       .  S
Cd6          O12   2.442       .  S
Cd6          O11   2.441       .  S
Cd6           O7   2.463       .  S
Cd6          O10   2.457       .  S
Cd6           O8   2.474       .  S
C9           O13   1.260       .  A
C9         C1050   1.484   1_565  S
O14          C17   1.269       .  A
O14         Cd19   2.488       .  S
C15          O24   1.267       .  A
C15          O20   1.265       .  A
C15         C973   1.484   1_545  S
O16          C22   1.264       .  A
O16         Cd19   2.452       .  S
C17          O25   1.260       .  A
C17        C1053   1.489       .  S
C18          O23   1.266       .  A
C18          O21   1.263       .  A
C18         C986   1.497       .  S
Cd19         O26   2.476       .  S
Cd19         O25   2.406       .  S
Cd19         O24   2.483       .  S
Cd19         O20   2.450       .  S
Cd19         O23   2.467       .  S
Cd19         O21   2.482       .  S
C22          O26   1.266       .  A
C22        C1002   1.480   1_545  S
O27          C30   1.267       .  A
O27         Cd32   2.482       .  S
C28          O37   1.265       .  A
C28          O33   1.265       .  A
C28         C938   1.484       .  S
O29          C35   1.265       .  A
O29         Cd32   2.471       .  S
C30          O38   1.265       .  A
C30        C1005   1.492       .  S
C31          O36   1.265       .  A
C31          O34   1.264       .  A
C31         C954   1.499       .  S
Cd32         O39   2.448       .  S
Cd32         O38   2.437       .  S
Cd32         O37   2.459       .  S
Cd32         O33   2.475       .  S
Cd32         O36   2.487       .  S
Cd32         O34   2.478       .  S
C35          O39   1.262       .  A
C35        C1066   1.484       .  S
O40          C43   1.265       .  A
O40         Cd45   2.474       .  S
C41          O50   1.269       .  A
C41          O46   1.263       .  A
C41         C874   1.485       .  S
O42          C48   1.267       .  A
O42         Cd45   2.476   1_554  S
C43          O51   1.264       .  A
C43         C922   1.486   1_545  S
C44          O49   1.265       .  A
C44          O47   1.263   1_554  A
C44         C890   1.495       .  S
Cd45         O52   2.446   1_556  S
Cd45         O51   2.438       .  S
Cd45         O50   2.469       .  S
Cd45         O46   2.455       .  S
Cd45         O49   2.478   1_556  S
Cd45         O47   2.480       .  S
C48          O52   1.262       .  A
C48         C906   1.487       .  S
O53          C56   1.268       .  A
O53         Cd58   2.470   1_545  S
C54          O63   1.265       .  A
C54          O59   1.267       .  A
C54         C845   1.484       .  S
O55          C61   1.265       .  A
O55         Cd58   2.457       .  S
C56          O64   1.261   1_545  A
C56         C909   1.487       .  S
C57          O62   1.265       .  A
C57          O60   1.262   1_565  A
C57        C1034   1.488       .  S
Cd58         O65   2.452       .  S
Cd58         O64   2.443       .  S
Cd58         O63   2.471   1_565  S
Cd58         O59   2.457   1_565  S
Cd58         O62   2.462       .  S
Cd58         O60   2.458   1_565  S
C61          O65   1.264       .  A
C61         C861   1.481       .  S
O66          C69   1.266       .  A
O66         Cd71   2.471       .  S
C67          O76   1.265       .  A
C67          O72   1.266       .  A
C67         C970   1.489       .  S
O68          C74   1.267       .  A
O68         Cd71   2.498       .  S
C69          O77   1.265       .  A
C69         C858   1.483       .  S
C70          O75   1.264       .  A
C70          O73   1.267       .  A
C70         C826   1.494       .  S
Cd71         O78   2.408       .  S
Cd71         O77   2.433       .  S
Cd71         O76   2.464       .  S
Cd71         O72   2.486       .  S
Cd71         O75   2.468       .  S
Cd71         O73   2.478       .  S
C74          O78   1.262       .  A
C74         C925   1.477       .  S
O79          C82   1.266       .  A
O79         Cd84   2.458       .  S
C80          O89   1.268       .  A
C80          O85   1.261       .  A
C80         C778   1.489       .  S
O81          C87   1.264       .  A
O81         Cd84   2.425   1_556  S
C82          O90   1.265       .  A
C82         C813   1.484   1_545  S
C83          O88   1.265       .  A
C83          O86   1.263       .  A
C83         C893   1.489       .  S
Cd84         O91   2.489   1_554  S
Cd84         O90   2.421       .  S
Cd84         O89   2.471       .  S
Cd84         O85   2.462       .  S
Cd84         O88   2.463       .  S
Cd84         O86   2.478       .  S
C87          O91   1.266       .  A
C87         C794   1.482       .  S
O92          C95   1.269       .  A
O92         Cd97   2.471       .  S
C93         O102   1.267       .  A
C93          O98   1.265       .  A
C93         C730   1.487       .  S
O94         C100   1.265       .  A
O94         Cd97   2.458   1_655  S
C95         O103   1.263       .  A
C95         C765   1.486       .  S
C96         O101   1.263   1_455  A
C96          O99   1.264       .  A
C96         C746   1.491       .  S
Cd97        O104   2.452   1_455  S
Cd97        O103   2.442       .  S
Cd97        O102   2.460       .  S
Cd97         O98   2.472       .  S
Cd97        O101   2.482   1_455  S
Cd97         O99   2.452       .  S
C100        O104   1.262       .  A
C100        C810   1.479       .  S
O105        C108   1.262       .  A
O105       Cd110   2.468   1_545  S
C106        O115   1.262   1_545  A
C106        O111   1.267       .  A
C106        C797   1.490       .  S
O107        C113   1.263       .  A
O107       Cd110   2.457       .  S
C108        O116   1.266   1_545  A
C108        C842   1.487       .  S
C109        O114   1.266       .  A
C109        O112   1.263       .  A
C109        C762   1.470       .  S
Cd110       O117   2.470       .  S
Cd110       O116   2.476       .  S
Cd110       O115   2.446       .  S
Cd110       O111   2.485   1_565  S
Cd110       O114   2.493       .  S
Cd110       O112   2.430       .  S
C113        O117   1.267       .  A
C113        C714   1.487       .  S
O118        C121   1.266       .  A
O118       Cd123   2.472       .  S
C119        O128   1.268       .  A
C119        O124   1.267       .  A
C119        C666   1.472       .  S
O120        C126   1.267       .  A
O120       Cd123   2.477   1_455  S
C121        O129   1.263       .  A
C121        C701   1.487       .  S
C122        O127   1.264       .  A
C122        O125   1.266   1_455  A
C122        C749   1.492       .  S
Cd123       O130   2.413   1_655  S
Cd123       O129   2.417       .  S
Cd123       O128   2.448       .  S
Cd123       O124   2.445       .  S
Cd123       O127   2.457   1_655  S
Cd123       O125   2.446       .  S
C126        O130   1.260       .  A
C126        C682   1.475       .  S
O131        C134   1.266       .  A
O131       Cd136   2.458       .  S
C132        O141   1.268       .  A
C132        O137   1.263       .  A
C132        C781   1.478       .  S
O133        C139   1.260       .  A
O133       Cd136   2.419   1_556  S
C134        O142   1.262       .  A
C134        C685   1.488       .  S
C135        O140   1.264   1_554  A
C135        O138   1.265       .  A
C135        C634   1.486       .  S
Cd136       O143   2.511   1_554  S
Cd136       O142   2.429       .  S
Cd136       O141   2.458       .  S
Cd136       O137   2.444       .  S
Cd136       O140   2.464   1_554  S
Cd136       O138   2.446       .  S
C139        O143   1.267       .  A
C139        C650   1.477       .  S
O144        C147   1.269       .  A
O144       Cd149   2.488       .  S
C145        O154   1.268       .  A
C145        O150   1.261       .  A
C145        C602   1.485       .  S
O146        C152   1.263       .  A
O146       Cd149   2.427       .  S
C147        O155   1.261       .  A
C147        C653   1.488       .  S
C148        O153   1.262       .  A
C148        O151   1.267       .  A
C148        C618   1.495       .  S
Cd149       O156   2.459       .  S
Cd149       O155   2.425       .  S
Cd149       O154   2.481       .  S
Cd149       O150   2.458       .  S
Cd149       O153   2.465       .  S
Cd149       O151   2.470       .  S
C152        O156   1.267       .  A
C152        C698   1.481       .  S
O157        C160   1.263       .  A
O157       Cd162   2.436       .  S
C158        O167   1.267       .  A
C158        O163   1.264       .  A
C158        C877   1.475       .  S
O159        C165   1.263       .  A
O159       Cd162   2.462   1_554  S
C160        O168   1.267       .  A
C160        C586   1.488       .  S
C161        O166   1.264       .  A
C161        O164   1.266   1_554  A
C161        C637   1.484       .  S
Cd162       O169   2.434   1_556  S
Cd162       O168   2.459       .  S
Cd162       O167   2.445       .  S
Cd162       O163   2.450       .  S
Cd162       O166   2.454   1_556  S
Cd162       O164   2.454       .  S
C165        O169   1.262       .  A
C165        C573   1.476       .  S
O170        C173   1.265       .  A
O170       Cd175   2.460       .  S
C171        O180   1.264       .  A
C171        O176   1.264       .  A
C171        C570   1.488       .  S
O172        C178   1.266       .  A
O172       Cd175   2.479       .  S
C173        O181   1.268       .  A
C173        C605   1.484       .  S
C174        O179   1.268       .  A
C174        O177   1.261       .  A
C174        C554   1.484       .  S
Cd175       O182   2.443       .  S
Cd175       O181   2.439       .  S
Cd175       O180   2.428       .  S
Cd175       O176   2.475       .  S
Cd175       O179   2.515       .  S
Cd175       O177   2.431       .  S
C178        O182   1.266       .  A
C178        C541   1.490       .  S
O183        C186   1.268       .  A
O183       Cd188   2.508       .  S
C184        O193   1.262       .  A
C184        O189   1.270       .  A
C184        C557   1.490       .  S
O185        C191   1.264       .  A
O185       Cd188   2.470       .  S
C186        O194   1.266       .  A
C186        C522   1.489       .  S
C187        O192   1.269       .  A
C187        O190   1.263       .  A
C187        C589   1.480       .  S
Cd188       O195   2.486       .  S
Cd188       O194   2.437       .  S
Cd188       O193   2.435       .  S
Cd188       O189   2.492       .  S
Cd188       O192   2.500       .  S
Cd188       O190   2.403       .  S
C191        O195   1.268       .  A
C191        C829   1.501       .  S
O196        C199   1.268       .  A
O196       Cd201   2.473       .  S
C197        O206   1.260       .  A
C197        O202   1.268       .  A
C197        C525   1.501       .  S
O198        C204   1.260       .  A
O198       Cd201   2.419       .  S
C199        O207   1.267       .  A
C199        C506   1.499       .  S
C200        O205   1.266       .  A
C200        O203   1.263       .  A
C200        C989   1.494       .  S
Cd201       O208   2.500       .  S
Cd201       O207   2.463       .  S
Cd201       O206   2.438       .  S
Cd201       O202   2.519       .  S
Cd201       O205   2.481       .  S
Cd201       O203   2.474       .  S
C204        O208   1.266       .  A
C204        C493   1.483       .  S
O209        C212   1.267       .  A
O209       Cd214   2.465       .  S
C210        O219   1.264       .  A
C210        O215   1.267       .  A
C210        C490   1.487       .  S
O211        C217   1.267       .  A
O211       Cd214   2.482       .  S
C212        O220   1.266       .  A
C212        C941   1.478       .  S
C213        O218   1.270       .  A
C213        O216   1.260       .  A
C213        C477   1.476       .  S
Cd214       O221   2.431       .  S
Cd214       O220   2.459       .  S
Cd214       O219   2.433       .  S
Cd214       O215   2.483       .  S
Cd214       O218   2.506       .  S
Cd214       O216   2.404       .  S
C217        O221   1.267       .  A
C217        C458   1.497       .  S
O222        C225   1.267       .  A
O222       Cd227   2.473       .  S
C223        O232   1.267       .  A
C223        O228   1.264       .  A
C223        C442   1.474       .  S
O224        C230   1.263       .  A
O224       Cd227   2.459       .  S
C225        O233   1.263       .  A
C225        C474   1.483       .  S
C226        O231   1.263       .  A
C226        O229   1.265       .  A
C226        C538   1.490       .  S
Cd227       O234   2.482       .  S
Cd227       O233   2.438       .  S
Cd227       O232   2.469       .  S
Cd227       O228   2.419       .  S
Cd227       O231   2.458       .  S
Cd227       O229   2.475       .  S
C230        O234   1.264       .  A
C230        C509   1.491       .  S
O235        C238   1.265       .  A
O235       Cd240   2.480       .  S
C236        O245   1.267       .  A
C236        O241   1.268       .  A
C236        C669   1.481       .  S
O237        C243   1.261       .  A
O237       Cd240   2.436   1_455  S
C238        O246   1.264       .  A
C238        C426   1.491       .  S
C239        O244   1.266   1_655  A
C239        O242   1.267       .  A
C239        C394   1.504   1_655  S
Cd240       O247   2.511   1_655  S
Cd240       O246   2.438       .  S
Cd240       O245   2.457       .  S
Cd240       O241   2.456       .  S
Cd240       O244   2.486   1_655  S
Cd240       O242   2.482       .  S
C243        O247   1.269       .  A
C243        C410   1.485       .  S
O248        C251   1.265       .  A
O248       Cd253   2.464       .  S
C249        O258   1.264       .  A
C249        O254   1.266       .  A
C249        C413   1.496       .  S
O250        C256   1.264       .  A
O250       Cd253   2.466       .  S
C251        O259   1.268       .  A
C251        C365   1.489       .  S
C252        O257   1.261       .  A
C252        O255   1.268       .  A
C252        C381   1.488       .  S
Cd253       O260   2.480       .  S
Cd253       O259   2.459       .  S
Cd253       O258   2.439       .  S
Cd253       O254   2.492       .  S
Cd253       O257   2.400       .  S
Cd253       O255   2.518       .  S
C256        O260   1.267       .  A
C256        C461   1.497       .  S
O261        C264   1.265       .  A
O261       Cd266   2.473       .  S
C262        O271   1.266       .  A
C262        O267   1.263       .  A
C262        C445   1.480       .  S
O263        C269   1.264       .  A
O263       Cd266   2.467       .  S
C264        O272   1.266       .  A
C264        C378   1.488       .  S
C265        O270   1.262       .  A
C265        O268   1.266       .  A
C265        C621   1.499       .  S
Cd266       O273   2.465       .  S
Cd266       O272   2.445       .  S
Cd266       O271   2.452       .  S
Cd266       O267   2.452       .  S
Cd266       O270   2.474       .  S
Cd266       O268   2.501       .  S
C269        O273   1.264       .  A
C269        C429   1.487       .  S
O274        C277   1.262       .  A
O274       Cd279   2.455       .  S
C275        O284   1.265       .  A
C275        O280   1.267       .  A
C275        C346   1.498       .  S
O276        C282   1.263       .  A
O276       Cd279   2.492       .  S
C277        O285   1.268       .  A
C277       C1021   1.484       .  S
C278        O283   1.265       .  A
C278        O281   1.263       .  A
C278        C330   1.485   1_565  S
Cd279       O286   2.456       .  S
Cd279       O285   2.475       .  S
Cd279       O284   2.474       .  S
Cd279       O280   2.472       .  S
Cd279       O283   2.475       .  S
Cd279       O281   2.445       .  S
C282        O286   1.265       .  A
C282        C717   1.484       .  S
O287        C290   1.267       .  A
O287       Cd292   2.490       .  S
C288        O297   1.267       .  A
C288        O293   1.264       .  A
C288        C733   1.489   1_545  S
O289        C295   1.264       .  A
O289       Cd292   2.482   1_655  S
C290        O298   1.266       .  A
C290        C333   1.494       .  S
C291        O296   1.262   1_455  A
C291        O294   1.266       .  A
C291        C397   1.492       .  S
Cd292       O299   2.464   1_455  S
Cd292       O298   2.439       .  S
Cd292       O297   2.475       .  S
Cd292       O293   2.480       .  S
Cd292       O296   2.461   1_455  S
Cd292       O294   2.509       .  S
C295        O299   1.265       .  A
C295        C314   1.480   1_545  S
O300        C303   1.266       .  A
O300       Cd305   2.487       .  S
C301        O310   1.268       .  A
C301        O306   1.263       .  A
C301        C362   1.481       .  S
O302        C308   1.262       .  A
O302       Cd305   2.446       .  S
C303        O311   1.264       .  A
C303        C317   1.491       .  S
C304        O309   1.264       .  A
C304        O307   1.265       .  A
C304        C957   1.500       .  S
Cd305       O312   2.502       .  S
Cd305       O311   2.440       .  S
Cd305       O310   2.474       .  S
Cd305       O306   2.465       .  S
Cd305       O309   2.462       .  S
Cd305       O307   2.517       .  S
C308        O312   1.267       .  A
C308        C349   1.492       .  S
C313        C314   1.402       .  A
C313        C318   1.410       .  A
C313        H320   1.083       .  S
C314        C315   1.411       .  A
C315        C316   1.403       .  A
C315        C322   1.514   1_565  S
C316        C317   1.409       .  A
C316        H321   1.084       .  S
C317        C318   1.425       .  A
C318        C319   1.520       .  S
C319        F323   1.385       .  S
C319        F324   1.383       .  S
C319        F325   1.383       .  S
C322        F326   1.384       .  S
C322        F327   1.382       .  S
C322        F328   1.385       .  S
C329        C330   1.406       .  A
C329        C334   1.410       .  A
C329        H336   1.082       .  S
C330        C331   1.415       .  A
C331        C332   1.403       .  A
C331        C338   1.517       .  S
C332        C333   1.408       .  A
C332        H337   1.084       .  S
C333        C334   1.423       .  A
C334        C335   1.518       .  S
C335        F339   1.385       .  S
C335        F340   1.384       .  S
C335        F341   1.382       .  S
C338        F342   1.384       .  S
C338        F343   1.383       .  S
C338        F344   1.385       .  S
C345        C346   1.408   1_655  A
C345        C350   1.407       .  A
C345        H352   1.083       .  S
C346        C347   1.424       .  A
C347        C348   1.411   1_455  A
C347        C354   1.519       .  S
C348        C349   1.405       .  A
C348        H353   1.083       .  S
C349        C350   1.418       .  A
C350        C351   1.518       .  S
C351        F355   1.385       .  S
C351        F356   1.384       .  S
C351        F357   1.383       .  S
C354        F358   1.384       .  S
C354        F359   1.383       .  S
C354        F360   1.385       .  S
C361        C362   1.400       .  A
C361        C366   1.409       .  A
C361        H368   1.083       .  S
C362        C363   1.419   1_655  A
C363        C364   1.407       .  A
C363        C370   1.521       .  S
C364        C365   1.404       .  A
C364        H369   1.083       .  S
C365        C366   1.425   1_455  A
C366        C367   1.520       .  S
C367        F371   1.385       .  S
C367        F372   1.383       .  S
C367        F373   1.383   1_655  S
C370        F374   1.381   1_455  S
C370        F375   1.383       .  S
C370        F376   1.385       .  S
C377        C378   1.407       .  A
C377        C382   1.409   1_655  A
C377        H384   1.083       .  S
C378        C379   1.421       .  A
C379        C380   1.405       .  A
C379        C386   1.522       .  S
C380        C381   1.406   1_655  A
C380        H385   1.083       .  S
C381        C382   1.418       .  A
C382        C383   1.518       .  S
C383        F387   1.385       .  S
C383        F388   1.383       .  S
C383        F389   1.383       .  S
C386        F390   1.386       .  S
C386        F391   1.383       .  S
C386        F392   1.383       .  S
C393        C394   1.409   1_655  A
C393        C398   1.410       .  A
C393        H400   1.082       .  S
C394        C395   1.426       .  A
C395        C396   1.413       .  A
C395        C402   1.520       .  S
C396        C397   1.404       .  A
C396        H401   1.083       .  S
C397        C398   1.418   1_455  A
C398        C399   1.521       .  S
C399        F403   1.384       .  S
C399        F404   1.383       .  S
C399        F405   1.384       .  S
C402        F406   1.384       .  S
C402        F407   1.383       .  S
C402        F408   1.385       .  S
C409        C410   1.406       .  A
C409        C414   1.410       .  A
C409        H416   1.083       .  S
C410        C411   1.415       .  A
C411        C412   1.406       .  A
C411        C418   1.520       .  S
C412        C413   1.410       .  A
C412        H417   1.082       .  S
C413        C414   1.424       .  A
C414        C415   1.521       .  S
C415        F419   1.385       .  S
C415        F420   1.383       .  S
C415        F421   1.384       .  S
C418        F422   1.382       .  S
C418        F423   1.384       .  S
C418        F424   1.385       .  S
C425        C426   1.408       .  A
C425        C430   1.406       .  A
C425        H432   1.083       .  S
C426        C427   1.422       .  A
C427        C428   1.408       .  A
C427        C434   1.521       .  S
C428        C429   1.406       .  A
C428        H433   1.083       .  S
C429        C430   1.417       .  A
C430        C431   1.519       .  S
C431        F435   1.385       .  S
C431        F436   1.384       .  S
C431        F437   1.382       .  S
C434        F438   1.383       .  S
C434        F439   1.383       .  S
C434        F440   1.385       .  S
C441        C442   1.403       .  A
C441        C446   1.402       .  A
C441        H448   1.083       .  S
C442        C443   1.413       .  A
C443        C444   1.407       .  A
C443        C450   1.517       .  S
C444        C445   1.409       .  A
C444        H449   1.083       .  S
C445        C446   1.416       .  A
C446        C447   1.518       .  S
C447        F451   1.385       .  S
C447        F452   1.383       .  S
C447        F453   1.382       .  S
C450        F454   1.384       .  S
C450        F455   1.382       .  S
C450        F456   1.385       .  S
C457        C458   1.407       .  A
C457        C462   1.406       .  A
C457        H464   1.082       .  S
C458        C459   1.423       .  A
C459        C460   1.411       .  A
C459        C466   1.521       .  S
C460        C461   1.408       .  A
C460        H465   1.082       .  S
C461        C462   1.422       .  A
C462        C463   1.521       .  S
C463        F467   1.385       .  S
C463        F468   1.383       .  S
C463        F469   1.383       .  S
C466        F470   1.383       .  S
C466        F471   1.383       .  S
C466        F472   1.385       .  S
C473        C474   1.404       .  A
C473        C478   1.405       .  A
C473        H480   1.084       .  S
C474        C475   1.421       .  A
C475        C476   1.407       .  A
C475        C482   1.518       .  S
C476        C477   1.401       .  A
C476        H481   1.084       .  S
C477        C478   1.418       .  A
C478        C479   1.520       .  S
C479        F483   1.385       .  S
C479        F484   1.382       .  S
C479        F485   1.384       .  S
C482        F486   1.383       .  S
C482        F487   1.384       .  S
C482        F488   1.384       .  S
C489        C490   1.406       .  A
C489        C494   1.402       .  A
C489        H496   1.083       .  S
C490        C491   1.420       .  A
C491        C492   1.410       .  A
C491        C498   1.517       .  S
C492        C493   1.406       .  A
C492        H497   1.083       .  S
C493        C494   1.417       .  A
C494        C495   1.519       .  S
C495        F499   1.385       .  S
C495        F500   1.384       .  S
C495        F501   1.383       .  S
C498        F502   1.384       .  S
C498        F503   1.382       .  S
C498        F504   1.385       .  S
C505        C506   1.410       .  A
C505        C510   1.409       .  A
C505        H512   1.083       .  S
C506        C507   1.423       .  A
C507        C508   1.409       .  A
C507        C514   1.519       .  S
C508        C509   1.406       .  A
C508        H513   1.083       .  S
C509        C510   1.417       .  A
C510        C511   1.519       .  S
C511        F515   1.384       .  S
C511        F516   1.385       .  S
C511        F517   1.383       .  S
C514        F518   1.384       .  S
C514        F519   1.383       .  S
C514        F520   1.385       .  S
C521        C522   1.402       .  A
C521        C526   1.406       .  A
C521        H528   1.083       .  S
C522        C523   1.415       .  A
C523        C524   1.415       .  A
C523        C530   1.517       .  S
C524        C525   1.412       .  A
C524        H529   1.082       .  S
C525        C526   1.427       .  A
C526        C527   1.524       .  S
C527        F531   1.385       .  S
C527        F532   1.384       .  S
C527        F533   1.383       .  S
C530        F534   1.382       .  S
C530        F535   1.383       .  S
C530        F536   1.385       .  S
C537        C538   1.407       .  A
C537        C542   1.410       .  A
C537        H544   1.083       .  S
C538        C539   1.421       .  A
C539        C540   1.405       .  A
C539        C546   1.522       .  S
C540        C541   1.405       .  A
C540        H545   1.082       .  S
C541        C542   1.420       .  A
C542        C543   1.519       .  S
C543        F547   1.385       .  S
C543        F548   1.383       .  S
C543        F549   1.383       .  S
C546        F550   1.384       .  S
C546        F551   1.383       .  S
C546        F552   1.385       .  S
C553        C554   1.403       .  A
C553        C558   1.410   1_554  A
C553        H560   1.083       .  S
C554        C555   1.418   1_554  A
C555        C556   1.405       .  A
C555        C562   1.518       .  S
C556        C557   1.404       .  A
C556        H561   1.084       .  S
C557        C558   1.424       .  A
C558        C559   1.519       .  S
C559        F563   1.385   1_556  S
C559        F564   1.383       .  S
C559        F565   1.384       .  S
C562        F566   1.382       .  S
C562        F567   1.384       .  S
C562        F568   1.385       .  S
C569        C570   1.408       .  A
C569        C574   1.400       .  A
C569        H576   1.083       .  S
C570        C571   1.423       .  A
C571        C572   1.407       .  A
C571        C578   1.520       .  S
C572        C573   1.404       .  A
C572        H577   1.083       .  S
C573        C574   1.412       .  A
C574        C575   1.516       .  S
C575        F579   1.385       .  S
C575        F580   1.384       .  S
C575        F581   1.383       .  S
C578        F582   1.383       .  S
C578        F583   1.383       .  S
C578        F584   1.386       .  S
C585        C586   1.409       .  A
C585        C590   1.408       .  A
C585        H592   1.082       .  S
C586        C587   1.422       .  A
C587        C588   1.404       .  A
C587        C594   1.521       .  S
C588        C589   1.403       .  A
C588        H593   1.084       .  S
C589        C590   1.415       .  A
C590        C591   1.518       .  S
C591        F595   1.385       .  S
C591        F596   1.383       .  S
C591        F597   1.383       .  S
C594        F598   1.384       .  S
C594        F599   1.383       .  S
C594        F600   1.385       .  S
C601        C602   1.403       .  A
C601        C606   1.408       .  A
C601        H608   1.083       .  S
C602        C603   1.423   1_556  A
C603        C604   1.405       .  A
C603        C610   1.520       .  S
C604        C605   1.401       .  A
C604        H609   1.083       .  S
C605        C606   1.421   1_554  A
C606        C607   1.519       .  S
C607        F611   1.385       .  S
C607        F612   1.382       .  S
C607        F613   1.383   1_556  S
C610        F614   1.381       .  S
C610        F615   1.383       .  S
C610        F616   1.385       .  S
C617        C618   1.404       .  A
C617        C622   1.407       .  A
C617        H624   1.082       .  S
C618        C619   1.423       .  A
C619        C620   1.411       .  A
C619        C626   1.521       .  S
C620        C621   1.408       .  A
C620        H625   1.082       .  S
C621        C622   1.424       .  A
C622        C623   1.520       .  S
C623        F627   1.385       .  S
C623        F628   1.383       .  S
C623        F629   1.383       .  S
C626        F630   1.383       .  S
C626        F631   1.384       .  S
C626        F632   1.385       .  S
C633        C634   1.406       .  A
C633        C638   1.406       .  A
C633        H640   1.083       .  S
C634        C635   1.421   1_554  A
C635        C636   1.406       .  A
C635        C642   1.521       .  S
C636        C637   1.404   1_556  A
C636        H641   1.083       .  S
C637        C638   1.419       .  A
C638        C639   1.520       .  S
C639        F643   1.385       .  S
C639        F644   1.383       .  S
C639        F645   1.383       .  S
C642        F646   1.384       .  S
C642        F647   1.383       .  S
C642        F648   1.385       .  S
C649        C650   1.401       .  A
C649        C654   1.408   1_455  A
C649        H656   1.084       .  S
C650        C651   1.417   1_455  A
C651        C652   1.402       .  A
C651        C658   1.518       .  S
C652        C653   1.405       .  A
C652        H657   1.084       .  S
C653        C654   1.424       .  A
C654        C655   1.518   1_655  S
C655        F659   1.385       .  S
C655        F660   1.381       .  S
C655        F661   1.384   1_455  S
C658        F662   1.383       .  S
C658        F663   1.383   1_655  S
C658        F664   1.383       .  S
C665        C666   1.403       .  A
C665        C670   1.406       .  A
C665        H672   1.084       .  S
C666        C667   1.411       .  A
C667        C668   1.407       .  A
C667        C674   1.517       .  S
C668        C669   1.408       .  A
C668        H673   1.084       .  S
C669        C670   1.417       .  A
C670        C671   1.518       .  S
C671        F675   1.385       .  S
C671        F676   1.383       .  S
C671        F677   1.382   1_655  S
C674        F678   1.384       .  S
C674        F679   1.382       .  S
C674        F680   1.384       .  S
C681        C682   1.402       .  A
C681        C686   1.407       .  A
C681        H688   1.083       .  S
C682        C683   1.414       .  A
C683        C684   1.401       .  A
C683        C690   1.518       .  S
C684        C685   1.407       .  A
C684        H689   1.084       .  S
C685        C686   1.425       .  A
C686        C687   1.522       .  S
C687        F691   1.384   1_554  S
C687        F692   1.384   1_554  S
C687        F693   1.383   1_554  S
C690        F694   1.383       .  S
C690        F695   1.384       .  S
C690        F696   1.384       .  S
C697        C698   1.404       .  A
C697        C702   1.407   1_556  A
C697        H704   1.082       .  S
C698        C699   1.416       .  A
C699        C700   1.401       .  A
C699        C706   1.517       .  S
C700        C701   1.408   1_556  A
C700        H705   1.083       .  S
C701        C702   1.421       .  A
C702        C703   1.518       .  S
C703        F707   1.385       .  S
C703        F708   1.383       .  S
C703        F709   1.383       .  S
C706        F710   1.384       .  S
C706        F711   1.382       .  S
C706        F712   1.385   1_655  S
C713        C714   1.406       .  A
C713        C718   1.409       .  A
C713        H720   1.083   1_565  S
C714        C715   1.422       .  A
C715        C716   1.404       .  A
C715        C722   1.521       .  S
C716        C717   1.402       .  A
C716        H721   1.083       .  S
C717        C718   1.418       .  A
C718        C719   1.518   1_565  S
C719        F723   1.386       .  S
C719        F724   1.381       .  S
C719        F725   1.383   1_545  S
C722        F726   1.383       .  S
C722        F727   1.383       .  S
C722        F728   1.385       .  S
C729        C730   1.403       .  A
C729        C734   1.409       .  A
C729        H736   1.083       .  S
C730        C731   1.421       .  A
C731        C732   1.409       .  A
C731        C738   1.520       .  S
C732        C733   1.404       .  A
C732        H737   1.083   1_565  S
C733        C734   1.422       .  A
C734        C735   1.520       .  S
C735        F739   1.385       .  S
C735        F740   1.382       .  S
C735        F741   1.383       .  S
C738        F742   1.384       .  S
C738        F743   1.383       .  S
C738        F744   1.384   1_565  S
C745        C746   1.406       .  A
C745        C750   1.406       .  A
C745        H752   1.082       .  S
C746        C747   1.420   1_455  A
C747        C748   1.406       .  A
C747        C754   1.520       .  S
C748        C749   1.408   1_655  A
C748        H753   1.082       .  S
C749        C750   1.423       .  A
C750        C751   1.522       .  S
C751        F755   1.385       .  S
C751        F756   1.383       .  S
C751        F757   1.383       .  S
C754        F758   1.382       .  S
C754        F759   1.383       .  S
C754        F760   1.385       .  S
C761        C762   1.400       .  A
C761        C766   1.408   1_556  A
C761        H768   1.084       .  S
C762        C763   1.413   1_556  A
C763        C764   1.401       .  A
C763        C770   1.518       .  S
C764        C765   1.405       .  A
C764        H769   1.085       .  S
C765        C766   1.424       .  A
C766        C767   1.518       .  S
C767        F771   1.385   1_554  S
C767        F772   1.383       .  S
C767        F773   1.384       .  S
C770        F774   1.382       .  S
C770        F775   1.383       .  S
C770        F776   1.384       .  S
C777        C778   1.404       .  A
C777        C782   1.405       .  A
C777        H784   1.083       .  S
C778        C779   1.425   1_655  A
C779        C780   1.408       .  A
C779        C786   1.520       .  S
C780        C781   1.400       .  A
C780        H785   1.083       .  S
C781        C782   1.419   1_455  A
C782        C783   1.521       .  S
C783        F787   1.384       .  S
C783        F788   1.381       .  S
C783        F789   1.383       .  S
C786        F790   1.382       .  S
C786        F791   1.383       .  S
C786        F792   1.385       .  S
C793        C794   1.403       .  A
C793        C798   1.404       .  A
C793        H800   1.085       .  S
C794        C795   1.419       .  A
C795        C796   1.409   1_655  A
C795        C802   1.520       .  S
C796        C797   1.407       .  A
C796        H801   1.084       .  S
C797        C798   1.421   1_455  A
C798        C799   1.518   1_545  S
C799        F803   1.385       .  S
C799        F804   1.383   1_655  S
C799        F805   1.384   1_655  S
C802        F806   1.381       .  S
C802        F807   1.383       .  S
C802        F808   1.384   1_655  S
C809        C810   1.404       .  A
C809        C814   1.405       .  A
C809        H816   1.083       .  S
C810        C811   1.415       .  A
C811        C812   1.404       .  A
C811        C818   1.518       .  S
C812        C813   1.407       .  A
C812        H817   1.083       .  S
C813        C814   1.420       .  A
C814        C815   1.520   1_565  S
C815        F819   1.385       .  S
C815        F820   1.383       .  S
C815        F821   1.383       .  S
C818        F822   1.383       .  S
C818        F823   1.382       .  S
C818        F824   1.385       .  S
C825        C826   1.405       .  A
C825        C830   1.410       .  A
C825        H832   1.083       .  S
C826        C827   1.420       .  A
C827        C828   1.410       .  A
C827        C834   1.520       .  S
C828        C829   1.409       .  A
C828        H833   1.082       .  S
C829        C830   1.426       .  A
C830        C831   1.522       .  S
C831        F835   1.385       .  S
C831        F836   1.384       .  S
C831        F837   1.383       .  S
C834        F838   1.383       .  S
C834        F839   1.384       .  S
C834        F840   1.384       .  S
C841        C842   1.403       .  A
C841        C846   1.408       .  A
C841        H848   1.083       .  S
C842        C843   1.422   1_556  A
C843        C844   1.408       .  A
C843        C850   1.518       .  S
C844        C845   1.402       .  A
C844        H849   1.083       .  S
C845        C846   1.420   1_554  A
C846        C847   1.518       .  S
C847        F851   1.385       .  S
C847        F852   1.382   1_545  S
C847        F853   1.384       .  S
C850        F854   1.384   1_554  S
C850        F855   1.383       .  S
C850        F856   1.385       .  S
C857        C858   1.406       .  A
C857        C862   1.404   1_556  A
C857        H864   1.084       .  S
C858        C859   1.420       .  A
C859        C860   1.406       .  A
C859        C866   1.520       .  S
C860        C861   1.405   1_556  A
C860        H865   1.083   1_556  S
C861        C862   1.415       .  A
C862        C863   1.516       .  S
C863        F867   1.385       .  S
C863        F868   1.384       .  S
C863        F869   1.382       .  S
C866        F870   1.383       .  S
C866        F871   1.384       .  S
C866        F872   1.385       .  S
C873        C874   1.404       .  A
C873        C878   1.407       .  A
C873        H880   1.083       .  S
C874        C875   1.424       .  A
C875        C876   1.405       .  A
C875        C882   1.519       .  S
C876        C877   1.398       .  A
C876        H881   1.083       .  S
C877        C878   1.418       .  A
C878        C879   1.520       .  S
C879        F883   1.385       .  S
C879        F884   1.383       .  S
C879        F885   1.383       .  S
C882        F886   1.382       .  S
C882        F887   1.382       .  S
C882        F888   1.385       .  S
C889        C890   1.407       .  A
C889        C894   1.409       .  A
C889        H896   1.082       .  S
C890        C891   1.423   1_554  A
C891        C892   1.408       .  A
C891        C898   1.520       .  S
C892        C893   1.404   1_556  A
C892        H897   1.083       .  S
C893        C894   1.421       .  A
C894        C895   1.522       .  S
C895        F899   1.385       .  S
C895        F900   1.383       .  S
C895        F901   1.384       .  S
C898        F902   1.383       .  S
C898        F903   1.383       .  S
C898        F904   1.385       .  S
C905        C906   1.405       .  A
C905        C910   1.407       .  A
C905        H912   1.083       .  S
C906        C907   1.419       .  A
C907        C908   1.403       .  A
C907        C914   1.516       .  S
C908        C909   1.404       .  A
C908        H913   1.084       .  S
C909        C910   1.423       .  A
C910        C911   1.520   1_545  S
C911        F915   1.385       .  S
C911        F916   1.382       .  S
C911        F917   1.384       .  S
C914        F918   1.382       .  S
C914        F919   1.383       .  S
C914        F920   1.385       .  S
C921        C922   1.408       .  A
C921        C926   1.407       .  A
C921        H928   1.083       .  S
C922        C923   1.421       .  A
C923        C924   1.404       .  A
C923        C930   1.520   1_565  S
C924        C925   1.402       .  A
C924        H929   1.083       .  S
C925        C926   1.414       .  A
C926        C927   1.518       .  S
C927        F931   1.385       .  S
C927        F932   1.383       .  S
C927        F933   1.384       .  S
C930        F934   1.383       .  S
C930        F935   1.382       .  S
C930        F936   1.385       .  S
C937        C938   1.408       .  A
C937        C942   1.407       .  A
C937        H944   1.084       .  S
C938        C939   1.418       .  A
C939        C940   1.407       .  A
C939        C946   1.518       .  S
C940        C941   1.403       .  A
C940        H945   1.083       .  S
C941        C942   1.413       .  A
C942        C943   1.516       .  S
C943        F947   1.385       .  S
C943        F948   1.384       .  S
C943        F949   1.382       .  S
C946        F950   1.384       .  S
C946        F951   1.382       .  S
C946        F952   1.385       .  S
C953        C954   1.408       .  A
C953        C958   1.412       .  A
C953        H960   1.082       .  S
C954        C955   1.423       .  A
C955        C956   1.409       .  A
C955        C962   1.521       .  S
C956        C957   1.407       .  A
C956        H961   1.082       .  S
C957        C958   1.423       .  A
C958        C959   1.520       .  S
C959        F963   1.385       .  S
C959        F964   1.383       .  S
C959        F965   1.383       .  S
C962        F966   1.383       .  S
C962        F967   1.383       .  S
C962        F968   1.385       .  S
C969        C970   1.409       .  A
C969        C974   1.411       .  A
C969        H976   1.083       .  S
C970        C971   1.418       .  A
C971        C972   1.407       .  A
C971        C978   1.519       .  S
C972        C973   1.405       .  A
C972        H977   1.083       .  S
C973        C974   1.415       .  A
C974        C975   1.518   1_565  S
C975        F979   1.385       .  S
C975        F980   1.384       .  S
C975        F981   1.382       .  S
C978        F982   1.383       .  S
C978        F983   1.382       .  S
C978        F984   1.385       .  S
C985        C986   1.407       .  A
C985        C990   1.408       .  A
C985        H992   1.082       .  S
C986        C987   1.425       .  A
C987        C988   1.410       .  A
C987        C994   1.521       .  S
C988        C989   1.406       .  A
C988        H993   1.082       .  S
C989        C990   1.421       .  A
C990        C991   1.521       .  S
C991        F995   1.385       .  S
C991        F996   1.383       .  S
C991        F997   1.384       .  S
C994        F998   1.383       .  S
C994        F999   1.383       .  S
C994       F1000   1.385       .  S
C1001      C1002   1.403       .  A
C1001      C1006   1.410       .  A
C1001      H1008   1.083       .  S
C1002      C1003   1.412       .  A
C1003      C1004   1.404       .  A
C1003      C1010   1.516   1_565  S
C1004      C1005   1.408       .  A
C1004      H1009   1.084       .  S
C1005      C1006   1.424       .  A
C1006      C1007   1.520       .  S
C1007      F1011   1.385       .  S
C1007      F1012   1.383       .  S
C1007      F1013   1.384       .  S
C1010      F1014   1.384       .  S
C1010      F1015   1.382       .  S
C1010      F1016   1.385       .  S
C1017      C1018   1.402       .  A
C1017      C1022   1.405       .  A
C1017      H1024   1.083       .  S
C1018      C1019   1.422       .  A
C1019      C1020   1.409       .  A
C1019      C1026   1.520       .  S
C1020      C1021   1.403       .  A
C1020      H1025   1.083       .  S
C1021      C1022   1.421       .  A
C1022      C1023   1.521       .  S
C1023      F1027   1.385       .  S
C1023      F1028   1.383       .  S
C1023      F1029   1.383       .  S
C1026      F1030   1.383       .  S
C1026      F1031   1.384       .  S
C1026      F1032   1.385       .  S
C1033      C1034   1.405       .  A
C1033      C1038   1.407       .  A
C1033      H1040   1.083       .  S
C1034      C1035   1.422       .  A
C1035      C1036   1.407       .  A
C1035      C1042   1.522   1_565  S
C1036      C1037   1.406       .  A
C1036      H1041   1.082   1_565  S
C1037      C1038   1.419       .  A
C1038      C1039   1.519       .  S
C1039      F1043   1.385       .  S
C1039      F1044   1.384       .  S
C1039      F1045   1.383       .  S
C1042      F1046   1.383       .  S
C1042      F1047   1.384       .  S
C1042      F1048   1.385       .  S
C1049      C1050   1.402       .  A
C1049      C1054   1.403       .  A
C1049      H1056   1.083       .  S
C1050      C1051   1.419       .  A
C1051      C1052   1.407       .  A
C1051      C1058   1.519       .  S
C1052      C1053   1.406       .  A
C1052      H1057   1.083       .  S
C1053      C1054   1.425       .  A
C1054      C1055   1.521       .  S
C1055      F1059   1.383       .  S
C1055      F1060   1.384       .  S
C1055      F1061   1.385       .  S
C1058      F1062   1.383   1_545  S
C1058      F1063   1.384       .  S
C1058      F1064   1.385       .  S
C1065      C1066   1.405       .  A
C1065      C1070   1.408       .  A
C1065      H1072   1.083       .  S
C1066      C1067   1.415       .  A
C1067      C1068   1.405       .  A
C1067      C1074   1.519       .  S
C1068      C1069   1.409       .  A
C1068      H1073   1.083       .  S
C1069      C1070   1.423       .  A
C1070      C1071   1.520       .  S
C1071      F1075   1.385       .  S
C1071      F1076   1.383       .  S
C1071      F1077   1.383       .  S
C1074      F1078   1.384       .  S
C1074      F1079   1.383       .  S
C1074      F1080   1.385       .  S
