geometry optimzed in LAMMPS
_audit_creation_date              2020-12-01 
_audit_creation_method            'lammps2cif' 
_symmetry_space_group_name_H-M    'P1' 
_symmetry_Int_Tables_number       1 
_symmetry_cell_setting            triclinic 
loop_ 
_symmetry_equiv_pos_as_xyz 
  x,y,z 
_cell_length_a                    46.68185839 
_cell_length_b                    46.644238575078084 
_cell_length_c                    27.829303618847028 
_cell_angle_alpha                 89.55897617813466 
_cell_angle_beta                  90.42276845212334 
_cell_angle_gamma                 121.76278642883463 
loop_ 
_atom_site_label 
_atom_site_type_symbol 
_atom_site_fract_x 
_atom_site_fract_y 
_atom_site_fract_z 
_atom_site_charge 
In1        In  0.23746689  0.33572804  0.29289652     1.36900
C2          C  0.29544435  0.37452800  0.24898397     0.80700
O3          O  0.26519033  0.32631872  0.34988733    -0.57800
O4          O  0.23270597  0.28529874  0.30368130    -0.48700
C5          C  0.20098762  0.33853775  0.36222385     0.73300
O6          O  0.22999083  0.36342187  0.35219034    -0.43500
C7          C  0.20041852  0.33605694  0.22119557     0.78100
O8          O  0.28641521  0.38532093  0.28375277    -0.55400
O9          O  0.20105486  0.30990390  0.23177047    -0.45500
O10         O  0.27526190  0.34416703  0.23766502    -0.51800
C11         C  0.25302733  0.29585239  0.33893678     0.88200
O12         O  0.19084922  0.31260945  0.33686039    -0.53700
O13         O  0.21828070  0.36139039  0.24733606    -0.57000
In14       In  0.10774578  0.34263627  0.04092593     1.36900
C15         C  0.05031076  0.30439779  0.08649718     0.80700
O16         O  0.12751231  0.31673396  0.08476045    -0.57800
O17         O  0.14471925  0.36805685  0.10149865    -0.48700
C18         C  0.14316879  0.33975477  0.47010184     0.73300
O19         O  0.11419502  0.31495706  0.48053893    -0.43500
C20         C  0.09252218  0.38311914  0.99622064     0.78100
O21         O  0.05861637  0.29333535  0.05121366    -0.55400
O22         O  0.11334836  0.39343281  0.03085109    -0.45500
O23         O  0.07091362  0.33473304  0.09747127    -0.51800
C24         C  0.14551843  0.34187638  0.11116716     0.88200
O25         O  0.15377427  0.36561457  0.49578826    -0.53700
O26         O  0.07957174  0.35252180  0.48532851    -0.57000
In27       In  0.33573545  0.23755987  0.45953296     1.36900
C28         C  0.37415902  0.29514390  0.00453113     0.80700
O29         O  0.32631811  0.26576670  0.40332760    -0.57800
O30         O  0.28517312  0.23243094  0.44878693    -0.48700
C31         C  0.33908726  0.20175561  0.38966303     0.73300
O32         O  0.36373872  0.23083664  0.39996548    -0.43500
C33         C  0.33646578  0.20027445  0.03060331     0.78100
O34         O  0.38506315  0.28661460  0.46931882    -0.55400
O35         O  0.31017556  0.20069881  0.02032663    -0.45500
O36         O  0.34383335  0.27470323  0.01569088    -0.51800
C37         C  0.29576819  0.25319273  0.41401746     0.88200
O38         O  0.31307289  0.19122943  0.41495345    -0.53700
O39         O  0.36168432  0.21838072  0.00439361    -0.57000
In40       In  0.34424885  0.10867910  0.21157145     1.36900
C41         C  0.30594427  0.05109786  0.16655342     0.80700
O42         O  0.31811216  0.12797881  0.16737606    -0.57800
O43         O  0.36945280  0.14543718  0.15060452    -0.48700
C44         C  0.34119275  0.14427596  0.28199270     0.73300
O45         O  0.31649516  0.11522133  0.27167728    -0.43500
C46         C  0.38444790  0.09320137  0.25647383     0.78100
O47         O  0.29498986  0.05956599  0.20177615    -0.55400
O48         O  0.39494993  0.11415579  0.22194636    -0.45500
O49         O  0.33624237  0.07162002  0.15535380    -0.51800
C50         C  0.34315791  0.14596588  0.14081211     0.88200
O51         O  0.36709632  0.15488236  0.25642284    -0.53700
O52         O  0.35386325  0.08034226  0.26720407    -0.57000
In53       In  0.57477265  0.57413181  0.37744808     1.36900
C54         C  0.59383207  0.63057159  0.42347163     0.80700
O55         O  0.52840784  0.55119931  0.42133561    -0.57800
O56         O  0.56529726  0.53845521  0.43817633    -0.48700
C57         C  0.53568785  0.53590990  0.30753253     0.73300
O58         O  0.53880617  0.56397235  0.31695718    -0.43500
C59         C  0.63110846  0.59372871  0.33087803     0.78100
O60         O  0.57293174  0.62083704  0.38896671    -0.55400
O61         O  0.62184300  0.57306517  0.36567534    -0.45500
O62         O  0.60505300  0.61184223  0.43347227    -0.51800
C63         C  0.53717579  0.53507213  0.44787845     0.88200
O64         O  0.55208269  0.52749516  0.33410781    -0.53700
O65         O  0.61197629  0.60446225  0.32086889    -0.57000
In66       In  0.43880047  0.43811423  0.12756870     1.36900
C67         C  0.38252871  0.41904373  0.17395592     0.80700
O68         O  0.40820481  0.40091595  0.07117662    -0.57800
O69         O  0.43980052  0.39101650  0.11542509    -0.48700
C70         C  0.47692262  0.47728232  0.05758584     0.73300
O71         O  0.44896017  0.47426774  0.06726037    -0.43500
C72         C  0.47795443  0.47564387  0.19788567     0.78100
O73         O  0.39216089  0.43994079  0.13941586    -0.55400
O74         O  0.47449242  0.44747124  0.18814187    -0.45500
O75         O  0.40128869  0.40784774  0.18383933    -0.51800
C76         C  0.41897003  0.38176036  0.08088010     0.88200
O77         O  0.48527903  0.46072677  0.08393156    -0.53700
O78         O  0.46186580  0.48449416  0.17142895    -0.57000
In79       In  0.90562616  0.67147236  0.46164246     1.36900
C80         C  0.96330723  0.71007193  0.41695303     0.80700
O81         O  0.93349069  0.66172902  0.01794433    -0.57800
O82         O  0.90040367  0.62085680  0.47189066    -0.48700
C83         C  0.86974009  0.67427872  0.03178907     0.73300
O84         O  0.89872265  0.69913801  0.02157579    -0.43500
C85         C  0.86802905  0.67163768  0.39068648     0.78100
O86         O  0.95453088  0.72103790  0.45180352    -0.55400
O87         O  0.86895423  0.64560114  0.40089188    -0.45500
O88         O  0.94304713  0.67966490  0.40598208    -0.51800
C89         C  0.92092825  0.63121737  0.00688441     0.88200
O90         O  0.85934399  0.64842361  0.00617706    -0.53700
O91         O  0.88587676  0.69696263  0.41685016    -0.57000
In92       In  0.77526911  0.67697838  0.20967984     1.36900
C93         C  0.71773526  0.63834232  0.25465937     0.80700
O94         O  0.79510673  0.65152506  0.25429823    -0.57800
O95         O  0.81174904  0.70279152  0.27061566    -0.48700
C96         C  0.81164368  0.67477399  0.13976373     0.73300
O97         O  0.78279029  0.64966349  0.14990647    -0.43500
C98         C  0.75927407  0.71647715  0.16387830     0.78100
O99         O  0.72648467  0.62738123  0.21975588    -0.55400
O100        O  0.77993187  0.72727239  0.19873365    -0.45500
O101        O  0.73795578  0.66878615  0.26554276    -0.51800
C102        C  0.81278240  0.67678579  0.28066635     0.88200
O103        O  0.82167657  0.70059332  0.16533372    -0.53700
O104        O  0.74690196  0.68591185  0.15329928    -0.57000
In105      In  0.67196095  0.90591105  0.29116752     1.36900
C106        C  0.71010996  0.96347666  0.33663387     0.80700
O107        O  0.66198591  0.93377594  0.23512420    -0.57800
O108        O  0.62122161  0.90029677  0.28107973    -0.48700
C109        C  0.67496496  0.87025555  0.22073832     0.73300
O110        O  0.69970408  0.89931910  0.23097067    -0.43500
C111        C  0.67228937  0.86810189  0.36164972     0.78100
O112        O  0.72124778  0.95509825  0.30152621    -0.55400
O113        O  0.64618009  0.86887443  0.35153417    -0.45500
O114        O  0.67975870  0.94289390  0.34745605    -0.51800
C115        C  0.63145299  0.92092660  0.24618520     0.88200
O116        O  0.64914449  0.85967996  0.24645852    -0.53700
O117        O  0.69761699  0.88620355  0.33560870    -0.57000
In118      In  0.67736254  0.77537274  0.04295890     1.36900
C119        C  0.63836034  0.71762472  0.49860099     0.80700
O120        O  0.65208972  0.79523569  0.49803799    -0.57800
O121        O  0.70328388  0.81167862  0.48183644    -0.48700
C122        C  0.67539418  0.81206474  0.11272092     0.73300
O123        O  0.65021622  0.78323691  0.10265451    -0.43500
C124        C  0.71678204  0.75921483  0.08856060     0.78100
O125        O  0.62764347  0.72661007  0.03352707    -0.55400
O126        O  0.72753507  0.77979816  0.05358409    -0.45500
O127        O  0.66872941  0.73774503  0.48733351    -0.51800
C128        C  0.67736413  0.81278796  0.47164949     0.88200
O129        O  0.70116639  0.82192065  0.08715200    -0.53700
O130        O  0.68630805  0.74701733  0.09937605    -0.57000
In131      In  0.01037549  0.44255005  0.37786762     1.36900
C132        C  0.97207071  0.38486739  0.33318907     0.80700
O133        O  0.98431802  0.46169030  0.33318181    -0.57800
O134        O  0.03582774  0.47939951  0.31714316    -0.48700
C135        C  0.00738330  0.47827577  0.44815648     0.73300
O136        O  0.98259106  0.44930450  0.43773382    -0.43500
C137        C  0.05039173  0.42679677  0.42263247     0.78100
O138        O  0.96115159  0.39337259  0.36841475    -0.55400
O139        O  0.06094686  0.44771468  0.38805921    -0.45500
O140        O  0.00230063  0.40544900  0.32174205    -0.51800
C141        C  0.00953278  0.47982819  0.30697410     0.88200
O142        O  0.03333202  0.48873598  0.42274811    -0.53700
O143        O  0.01988113  0.41420099  0.43356715    -0.57000
In144      In  0.00309588  0.57201742  0.12597381     1.36900
C145        C  0.04164220  0.62960581  0.17087567     0.80700
O146        O  0.99373451  0.60032461  0.06997451    -0.57800
O147        O  0.95264143  0.56705740  0.11561312    -0.48700
C148        C  0.00589259  0.53601415  0.05593359     0.73300
O149        O  0.03069602  0.56505159  0.06605567    -0.43500
C150        C  0.00354162  0.53457907  0.19691963     0.78100
O151        O  0.05256842  0.62093646  0.13584619    -0.55400
O152        O  0.97738717  0.53525976  0.18671442    -0.45500
O153        O  0.01127898  0.60927304  0.18194564    -0.51800
C154        C  0.96323575  0.58784892  0.08089057     0.88200
O155        O  0.98002991  0.52563318  0.08150629    -0.53700
O156        O  0.02881190  0.55255544  0.17072648    -0.57000
In157      In  0.90778563  0.24208288  0.20980211     1.36900
C158        C  0.96397629  0.26084941  0.16331155     0.80700
O159        O  0.88442275  0.19588919  0.16558036    -0.57800
O160        O  0.87239679  0.23337812  0.14907181    -0.48700
C161        C  0.86933528  0.20286425  0.27950398     0.73300
O162        O  0.89726317  0.20574798  0.26999344    -0.43500
C163        C  0.92767172  0.29823525  0.25695882     0.78100
O164        O  0.95411738  0.23971495  0.19757257    -0.55400
O165        O  0.90699649  0.28921225  0.22225674    -0.45500
O166        O  0.94555518  0.27251010  0.15390206    -0.51800
C167        C  0.86866058  0.20511917  0.13911070     0.88200
O168        O  0.86115678  0.21953382  0.25309405    -0.53700
O169        O  0.93833799  0.27897835  0.26655991    -0.57000
In170      In  0.77198695  0.10608845  0.45993353     1.36900
C171        C  0.75335629  0.04984039  0.41352849     0.80700
O172        O  0.73519995  0.07566060  0.01690061    -0.57800
O173        O  0.72480790  0.10676001  0.47223753    -0.48700
C174        C  0.81106722  0.14487261  0.02939716     0.73300
O175        O  0.80827135  0.11691916  0.02019505    -0.43500
C176        C  0.80916814  0.14519142  0.38932450     0.78100
O177        O  0.77437252  0.05969657  0.44790949    -0.55400
O178        O  0.78084767  0.14137810  0.39894177    -0.45500
O179        O  0.74171280  0.06826997  0.40400267    -0.51800
C180        C  0.71587326  0.08620854  0.00712955     0.88200
O181        O  0.79435841  0.15290055  0.00281752    -0.53700
O182        O  0.81834116  0.12950126  0.41608158    -0.57000
In183      In  0.44224670  0.01002960  0.37621137     1.36900
C184        C  0.38444061  0.97173215  0.42064413     0.80700
O185        O  0.46132633  0.98398846  0.42108910    -0.57800
O186        O  0.47883823  0.03548776  0.43715024    -0.48700
C187        C  0.47813179  0.00699201  0.30624433     0.73300
O188        O  0.44909128  0.98223372  0.31644379    -0.43500
C189        C  0.42706440  0.05030337  0.33079686     0.78100
O190        O  0.39311329  0.96073513  0.38571064    -0.55400
O191        O  0.44774141  0.06075427  0.36562197    -0.45500
O192        O  0.40489285  0.00205341  0.43187536    -0.51800
C193        C  0.47934123  0.00921426  0.44734288     0.88200
O194        O  0.48859911  0.03290478  0.33176389    -0.53700
O195        O  0.41432934  0.01972302  0.32000793    -0.57000
In196      In  0.57167570  0.00285722  0.12807390     1.36900
C197        C  0.62928986  0.04154396  0.08337751     0.80700
O198        O  0.60003344  0.99339900  0.18379279    -0.57800
O199        O  0.56676761  0.95235291  0.13809600    -0.48700
C200        C  0.53581561  0.00558694  0.19836777     0.73300
O201        O  0.56474972  0.03046698  0.18803370    -0.43500
C202        C  0.53418827  0.00332960  0.05726624     0.78100
O203        O  0.62062073  0.05235619  0.11854680    -0.55400
O204        O  0.53492900  0.97717426  0.06736944    -0.45500
O205        O  0.60890780  0.01124291  0.07199557    -0.51800
C206        C  0.58760724  0.96291485  0.17272027     0.88200
O207        O  0.52546105  0.97967867  0.17287888    -0.53700
O208        O  0.55214784  0.02859983  0.08347112    -0.57000
In209      In  0.10586111  0.77241187  0.29416128     1.36900
C210        C  0.04976704  0.75373949  0.34068806     0.80700
O211        O  0.07525746  0.73523366  0.23772871    -0.57800
O212        O  0.10697188  0.72541085  0.28183285    -0.48700
C213        C  0.14424825  0.81160783  0.22448099     0.73300
O214        O  0.11619953  0.80851471  0.23377048    -0.43500
C215        C  0.14482256  0.80978627  0.36464698     0.78100
O216        O  0.05945897  0.77462557  0.30612750    -0.55400
O217        O  0.14117060  0.78150287  0.35511022    -0.45500
O218        O  0.06829115  0.74223543  0.35035993    -0.51800
C219        C  0.08614707  0.71616031  0.24728749     0.88200
O220        O  0.15255951  0.79512494  0.25107158    -0.53700
O221        O  0.12906191  0.81884308  0.33785180    -0.57000
In222      In  0.24183977  0.90803406  0.04404903     1.36900
C223        C  0.26149109  0.96442798  0.09040965     0.80700
O224        O  0.19571602  0.88538025  0.08833840    -0.57800
O225        O  0.23251099  0.87241246  0.10474498    -0.48700
C226        C  0.20244564  0.86985889  0.47443412     0.73300
O227        O  0.20569532  0.89797751  0.48389404    -0.43500
C228        C  0.29779946  0.92742622  0.99675686     0.78100
O229        O  0.24030717  0.95481181  0.05627903    -0.55400
O230        O  0.28859960  0.90664641  0.03139770    -0.45500
O231        O  0.27272564  0.94562800  0.09981048    -0.51800
C232        C  0.20450594  0.86920645  0.11473987     0.88200
O233        O  0.21882869  0.86135483  0.50087352    -0.53700
O234        O  0.27877777  0.93837450  0.48723475    -0.57000
C235        C  0.16544855  0.83214563  0.18600489    -0.10200
C236        C  0.18378627  0.84880768  0.15366911    -0.11700
C237        C  0.18187567  0.84879273  0.43590705    -0.10200
C238        C  0.16522257  0.83050280  0.40354579    -0.11700
C239        C  0.35345817  0.95165161  0.44632559    -0.10200
C240        C  0.32802271  0.93860464  0.46984629    -0.11700
C241        C  0.51458043  0.00482697  0.01849145    -0.10200
C242        C  0.49880274  0.00757064  0.48621123    -0.11700
C243        C  0.51574490  0.00636198  0.23648123    -0.10200
C244        C  0.49818332  0.00610846  0.26819549    -0.11700
C245        C  0.68563093  0.07488360  0.03406797    -0.10200
C246        C  0.66021687  0.06177101  0.05763832    -0.11700
C247        C  0.84817295  0.18459299  0.10011612    -0.10200
C248        C  0.83152421  0.16625465  0.06778051    -0.11700
C249        C  0.82981083  0.16568363  0.35038225    -0.10200
C250        C  0.84812787  0.18235561  0.31802071    -0.11700
C251        C  0.07490780  0.68587223  0.22044717    -0.10200
C252        C  0.06182340  0.66047362  0.19680791    -0.11700
C253        C  0.95201779  0.35390938  0.30744880    -0.10200
C254        C  0.93897949  0.32848594  0.28388971    -0.11700
C255        C  0.00647523  0.49828506  0.48626866    -0.10200
C256        C  0.00669633  0.51586721  0.01794105    -0.11700
C257        C  0.00783725  0.49929579  0.26812815    -0.10200
C258        C  0.00504738  0.51502428  0.23579525    -0.11700
C259        C  0.59751992  0.94244527  0.19790872    -0.10200
C260        C  0.61051295  0.93010788  0.22070515    -0.11700
C261        C  0.67572014  0.85025641  0.18246023    -0.10200
C262        C  0.67511493  0.83252004  0.15070682    -0.11700
C263        C  0.67614007  0.83240088  0.43263138    -0.10200
C264        C  0.67365555  0.84832319  0.40030499    -0.11700
C265        C  0.73001473  0.99429498  0.36289805    -0.10200
C266        C  0.74272785  0.01961981  0.38673681    -0.11700
C267        C  0.74960871  0.73685375  0.13784440    -0.10200
C268        C  0.73709901  0.74944266  0.11448518    -0.11700
C269        C  0.93031115  0.61045513  0.03247581    -0.10200
C270        C  0.94276354  0.59763389  0.05542584    -0.11700
C271        C  0.84965898  0.67495521  0.06995840    -0.10200
C272        C  0.83195549  0.67437598  0.10170744    -0.11700
C273        C  0.84832724  0.67293447  0.35186314    -0.10200
C274        C  0.83242414  0.67545092  0.31954560    -0.11700
C275        C  0.01958245  0.74306414  0.36744798    -0.10200
C276        C  0.99420683  0.73022682  0.39109827    -0.11700
C277        C  0.61797704  0.68661227  0.47303980    -0.10200
C278        C  0.60486140  0.66103898  0.44976938    -0.11700
C279        C  0.68689392  0.61811304  0.28064820    -0.10200
C280        C  0.66147518  0.60498491  0.30424101    -0.11700
C281        C  0.51633221  0.51455910  0.48667150    -0.10200
C282        C  0.49800042  0.49783763  0.01899574    -0.11700
C283        C  0.51519559  0.51479217  0.26896101    -0.10200
C284        C  0.49849486  0.49645374  0.23665104    -0.11700
C285        C  0.41768087  0.07102366  0.30507826    -0.10200
C286        C  0.40512049  0.08368385  0.28199222    -0.11700
C287        C  0.28584654  0.02023765  0.14057463    -0.10200
C288        C  0.27274061  0.99480458  0.11701493    -0.11700
C289        C  0.33820179  0.18088468  0.06957620    -0.10200
C290        C  0.34124434  0.16532574  0.10194872    -0.11700
C291        C  0.34021545  0.18172529  0.35176519    -0.10200
C292        C  0.34020024  0.16422839  0.32012490    -0.11700
C293        C  0.40757106  0.35138064  0.05418713    -0.10200
C294        C  0.39435293  0.32596853  0.03056650    -0.11700
C295        C  0.07089835  0.41698155  0.44792751    -0.10200
C296        C  0.08327350  0.40404380  0.47078392    -0.11700
C297        C  0.01953091  0.28442102  0.11275902    -0.10200
C298        C  0.99420210  0.27159987  0.13655047    -0.11700
C299        C  0.32653629  0.39484649  0.22359802    -0.10200
C300        C  0.35211769  0.40797099  0.20037399    -0.11700
C301        C  0.26264510  0.27537588  0.36492586    -0.10200
C302        C  0.27523236  0.26279945  0.38820531    -0.11700
C303        C  0.18096223  0.33747687  0.18208201    -0.10200
C304        C  0.16518193  0.34021062  0.14976583    -0.11700
C305        C  0.18067211  0.33928398  0.40000946    -0.10200
C306        C  0.16306280  0.33895340  0.43172489    -0.11700
In307      In  0.23746697  0.33572817  0.79289643     1.36900
C308        C  0.29544440  0.37452802  0.74898413     0.80700
O309        O  0.26519038  0.32631874  0.84988717    -0.57800
O310        O  0.23270598  0.28529874  0.80368123    -0.48700
C311        C  0.20098769  0.33853779  0.86222384     0.73300
O312        O  0.22999087  0.36342195  0.85219033    -0.43500
C313        C  0.20041849  0.33605698  0.72119557     0.78100
O314        O  0.28641527  0.38532096  0.78375292    -0.55400
O315        O  0.20105499  0.30990402  0.73177045    -0.45500
O316        O  0.27526193  0.34416707  0.73766503    -0.51800
C317        C  0.25302734  0.29585239  0.83893674     0.88200
O318        O  0.19084932  0.31260953  0.83686028    -0.53700
O319        O  0.21828061  0.36139046  0.74733602    -0.57000
In320      In  0.10774584  0.34263636  0.54092609     1.36900
C321        C  0.05031075  0.30439771  0.58649714     0.80700
O322        O  0.12751232  0.31673393  0.58476038    -0.57800
O323        O  0.14471929  0.36805684  0.60149864    -0.48700
C324        C  0.14316880  0.33975473  0.97010173     0.73300
O325        O  0.11419500  0.31495704  0.98053878    -0.43500
C326        C  0.09252216  0.38311912  0.49622062     0.78100
O327        O  0.05861637  0.29333530  0.55121361    -0.55400
O328        O  0.11334838  0.39343283  0.53085104    -0.45500
O329        O  0.07091358  0.33473295  0.59747123    -0.51800
C330        C  0.14551846  0.34187634  0.61116706     0.88200
O331        O  0.15377429  0.36561452  0.99578817    -0.53700
O332        O  0.07957181  0.35252185  0.98532839    -0.57000
In333      In  0.33573529  0.23755980  0.95953312     1.36900
C334        C  0.37415900  0.29514382  0.50453118     0.80700
O335        O  0.32631805  0.26576659  0.90332762    -0.57800
O336        O  0.28517305  0.23243095  0.94878708    -0.48700
C337        C  0.33908732  0.20175569  0.88966303     0.73300
O338        O  0.36373871  0.23083675  0.89996554    -0.43500
C339        C  0.33646582  0.20027449  0.53060328     0.78100
O340        O  0.38506316  0.28661467  0.96931878    -0.55400
O341        O  0.31017559  0.20069877  0.52032641    -0.45500
O342        O  0.34383335  0.27470314  0.51569101    -0.51800
C343        C  0.29576816  0.25319276  0.91401760     0.88200
O344        O  0.31307293  0.19122943  0.91495343    -0.53700
O345        O  0.36168444  0.21838090  0.50439377    -0.57000
In346      In  0.34424883  0.10867902  0.71157162     1.36900
C347        C  0.30594428  0.05109784  0.66655336     0.80700
O348        O  0.31811225  0.12797897  0.66737630    -0.57800
O349        O  0.36945280  0.14543713  0.65060470    -0.48700
C350        C  0.34119283  0.14427605  0.78199262     0.73300
O351        O  0.31649522  0.11522141  0.77167725    -0.43500
C352        C  0.38444790  0.09320139  0.75647394     0.78100
O353        O  0.29498988  0.05956603  0.70177604    -0.55400
O354        O  0.39494985  0.11415570  0.72194630    -0.45500
O355        O  0.33624239  0.07161997  0.65535376    -0.51800
C356        C  0.34315799  0.14596598  0.64081230     0.88200
O357        O  0.36709639  0.15488243  0.75642276    -0.53700
O358        O  0.35386325  0.08034225  0.76720425    -0.57000
In359      In  0.57477265  0.57413176  0.87744802     1.36900
C360        C  0.59383215  0.63057165  0.92347166     0.80700
O361        O  0.52840782  0.55119925  0.92133553    -0.57800
O362        O  0.56529735  0.53845533  0.93817636    -0.48700
C363        C  0.53568777  0.53590980  0.80753257     0.73300
O364        O  0.53880611  0.56397225  0.81695731    -0.43500
C365        C  0.63110849  0.59372873  0.83087811     0.78100
O366        O  0.57293180  0.62083708  0.88896678    -0.55400
O367        O  0.62184295  0.57306504  0.86567525    -0.45500
O368        O  0.60505304  0.61184229  0.93347234    -0.51800
C369        C  0.53717585  0.53507219  0.94787847     0.88200
O370        O  0.55208269  0.52749507  0.83410769    -0.53700
O371        O  0.61197638  0.60446237  0.82086913    -0.57000
In372      In  0.43880045  0.43811415  0.62756864     1.36900
C373        C  0.38252873  0.41904369  0.67395608     0.80700
O374        O  0.40820487  0.40091599  0.57117654    -0.57800
O375        O  0.43980049  0.39101641  0.61542509    -0.48700
C376        C  0.47692260  0.47728225  0.55758582     0.73300
O377        O  0.44896015  0.47426764  0.56726032    -0.43500
C378        C  0.47795436  0.47564385  0.69788565     0.78100
O379        O  0.39216089  0.43994074  0.63941598    -0.55400
O380        O  0.47449250  0.44747129  0.68814173    -0.45500
O381        O  0.40128870  0.40784770  0.68383944    -0.51800
C382        C  0.41897002  0.38176035  0.58088007     0.88200
O383        O  0.48527901  0.46072667  0.58393153    -0.53700
O384        O  0.46186564  0.48449405  0.67142900    -0.57000
In385      In  0.90562615  0.67147228  0.96164241     1.36900
C386        C  0.96330725  0.71007195  0.91695302     0.80700
O387        O  0.93349056  0.66172907  0.51794426    -0.57800
O388        O  0.90040370  0.62085679  0.97189079    -0.48700
C389        C  0.86974012  0.67427874  0.53178909     0.73300
O390        O  0.89872269  0.69913806  0.52157585    -0.43500
C391        C  0.86802904  0.67163758  0.89068638     0.78100
O392        O  0.95453091  0.72103787  0.95180358    -0.55400
O393        O  0.86895421  0.64560104  0.90089178    -0.45500
O394        O  0.94304715  0.67966491  0.90598203    -0.51800
C395        C  0.92092820  0.63121743  0.50688432     0.88200
O396        O  0.85934402  0.64842368  0.50617701    -0.53700
O397        O  0.88587674  0.69696254  0.91685005    -0.57000
In398      In  0.77526918  0.67697848  0.70967975     1.36900
C399        C  0.71773524  0.63834231  0.75465932     0.80700
O400        O  0.79510679  0.65152512  0.75429810    -0.57800
O401        O  0.81174901  0.70279149  0.77061589    -0.48700
C402        C  0.81164364  0.67477396  0.63976360     0.73300
O403        O  0.78279028  0.64966346  0.64990642    -0.43500
C404        C  0.75927401  0.71647711  0.66387830     0.78100
O405        O  0.72648457  0.62738124  0.71975572    -0.55400
O406        O  0.77993191  0.72727244  0.69873351    -0.45500
O407        O  0.73795581  0.66878614  0.76554267    -0.51800
C408        C  0.81278238  0.67678575  0.78066641     0.88200
O409        O  0.82167659  0.70059330  0.66533361    -0.53700
O410        O  0.74690194  0.68591182  0.65329923    -0.57000
In411      In  0.67196092  0.90591098  0.79116768     1.36900
C412        C  0.71010989  0.96347662  0.83663403     0.80700
O413        O  0.66198586  0.93377583  0.73512410    -0.57800
O414        O  0.62122161  0.90029682  0.78107976    -0.48700
C415        C  0.67496498  0.87025559  0.72073824     0.73300
O416        O  0.69970410  0.89931912  0.73097071    -0.43500
C417        C  0.67228939  0.86810186  0.86164974     0.78100
O418        O  0.72124769  0.95509830  0.80152625    -0.55400
O419        O  0.64618008  0.86887434  0.85153431    -0.45500
O420        O  0.67975867  0.94289380  0.84745629    -0.51800
C421        C  0.63145297  0.92092656  0.74618510     0.88200
O422        O  0.64914451  0.85967993  0.74645846    -0.53700
O423        O  0.69761701  0.88620356  0.83560874    -0.57000
In424      In  0.67736252  0.77537265  0.54295906     1.36900
C425        C  0.63836036  0.71762474  0.99860092     0.80700
O426        O  0.65208962  0.79523575  0.99803791    -0.57800
O427        O  0.70328385  0.81167875  0.98183659    -0.48700
C428        C  0.67539420  0.81206476  0.61272088     0.73300
O429        O  0.65021623  0.78323693  0.60265454    -0.43500
C430        C  0.71678212  0.75921493  0.58856071     0.78100
O431        O  0.62764344  0.72660994  0.53352729    -0.55400
O432        O  0.72753511  0.77979811  0.55358403    -0.45500
O433        O  0.66872943  0.73774500  0.98733340    -0.51800
C434        C  0.67736406  0.81278797  0.97164946     0.88200
O435        O  0.70116640  0.82192063  0.58715195    -0.53700
O436        O  0.68630813  0.74701742  0.59937615    -0.57000
In437      In  0.01037550  0.44255000  0.87786755     1.36900
C438        C  0.97207074  0.38486741  0.83318910     0.80700
O439        O  0.98431805  0.46169026  0.83318163    -0.57800
O440        O  0.03582782  0.47939962  0.81714313    -0.48700
C441        C  0.00738328  0.47827573  0.94815652     0.73300
O442        O  0.98259106  0.44930448  0.93773374    -0.43500
C443        C  0.05039174  0.42679674  0.92263247     0.78100
O444        O  0.96115158  0.39337266  0.86841469    -0.55400
O445        O  0.06094682  0.44771458  0.88805911    -0.45500
O446        O  0.00230070  0.40544894  0.82174221    -0.51800
C447        C  0.00953285  0.47982827  0.80697403     0.88200
O448        O  0.03333205  0.48873592  0.92274824    -0.53700
O449        O  0.01988117  0.41420100  0.93356725    -0.57000
In450      In  0.00309594  0.57201751  0.62597372     1.36900
C451        C  0.04164212  0.62960578  0.67087566     0.80700
O452        O  0.99373454  0.60032470  0.56997445    -0.57800
O453        O  0.95264144  0.56705734  0.61561294    -0.48700
C454        C  0.00589259  0.53601411  0.55593366     0.73300
O455        O  0.03069603  0.56505157  0.56605562    -0.43500
C456        C  0.00354157  0.53457906  0.69691951     0.78100
O457        O  0.05256831  0.62093647  0.63584611    -0.55400
O458        O  0.97738713  0.53525977  0.68671429    -0.45500
O459        O  0.01127890  0.60927297  0.68194572    -0.51800
C460        C  0.96323575  0.58784889  0.58089041     0.88200
O461        O  0.98002996  0.52563315  0.58150647    -0.53700
O462        O  0.02881186  0.55255542  0.67072635    -0.57000
In463      In  0.90778563  0.24208281  0.70980202     1.36900
C464        C  0.96397634  0.26084946  0.66331157     0.80700
O465        O  0.88442267  0.19588912  0.66558043    -0.57800
O466        O  0.87239675  0.23337810  0.64907196    -0.48700
C467        C  0.86933529  0.20286425  0.77950395     0.73300
O468        O  0.89726313  0.20574787  0.76999331    -0.43500
C469        C  0.92767174  0.29823523  0.75695875     0.78100
O470        O  0.95411734  0.23971489  0.69757247    -0.55400
O471        O  0.90699657  0.28921230  0.72225661    -0.45500
O472        O  0.94555526  0.27251020  0.65390208    -0.51800
C473        C  0.86866055  0.20511916  0.63911081     0.88200
O474        O  0.86115685  0.21953389  0.75309404    -0.53700
O475        O  0.93833794  0.27897827  0.76655982    -0.57000
In476      In  0.77198699  0.10608854  0.95993343     1.36900
C477        C  0.75335625  0.04984036  0.91352860     0.80700
O478        O  0.73519991  0.07566052  0.51690070    -0.57800
O479        O  0.72480785  0.10675999  0.97223743    -0.48700
C480        C  0.81106719  0.14487252  0.52939735     0.73300
O481        O  0.80827130  0.11691905  0.52019527    -0.43500
C482        C  0.80916812  0.14519138  0.88932450     0.78100
O483        O  0.77437243  0.05969653  0.94790964    -0.55400
O484        O  0.78084760  0.14137804  0.89894159    -0.45500
O485        O  0.74171282  0.06826997  0.90400266    -0.51800
C486        C  0.71587324  0.08620848  0.50712956     0.88200
O487        O  0.79435836  0.15290042  0.50281772    -0.53700
O488        O  0.81834109  0.12950122  0.91608167    -0.57000
In489      In  0.44224677  0.01002972  0.87621156     1.36900
C490        C  0.38444060  0.97173225  0.92064418     0.80700
O491        O  0.46132632  0.98398839  0.92108907    -0.57800
O492        O  0.47883825  0.03548772  0.93715022    -0.48700
C493        C  0.47813186  0.00699209  0.80624456     0.73300
O494        O  0.44909135  0.98223382  0.81644399    -0.43500
C495        C  0.42706446  0.05030340  0.83079684     0.78100
O496        O  0.39311328  0.96073522  0.88571069    -0.55400
O497        O  0.44774142  0.06075434  0.86562203    -0.45500
O498        O  0.40489287  0.00205350  0.93187538    -0.51800
C499        C  0.47934125  0.00921422  0.94734281     0.88200
O500        O  0.48859919  0.03290485  0.83176417    -0.53700
O501        O  0.41432945  0.01972306  0.82000794    -0.57000
In502      In  0.57167569  0.00285715  0.62807384     1.36900
C503        C  0.62928986  0.04154396  0.58337740     0.80700
O504        O  0.60003339  0.99339893  0.68379300    -0.57800
O505        O  0.56676770  0.95235297  0.63809593    -0.48700
C506        C  0.53581558  0.00558692  0.69836784     0.73300
O507        O  0.56474972  0.03046691  0.68803386    -0.43500
C508        C  0.53418831  0.00332960  0.55726613     0.78100
O509        O  0.62062071  0.05235614  0.61854672    -0.55400
O510        O  0.53492898  0.97717423  0.56736931    -0.45500
O511        O  0.60890785  0.01124291  0.57199546    -0.51800
C512        C  0.58760722  0.96291480  0.67272033     0.88200
O513        O  0.52546107  0.97967866  0.67287893    -0.53700
O514        O  0.55214787  0.02859980  0.58347108    -0.57000
In515      In  0.10586110  0.77241180  0.79416144     1.36900
C516        C  0.04976703  0.75373944  0.84068804     0.80700
O517        O  0.07525751  0.73523369  0.73772889    -0.57800
O518        O  0.10697190  0.72541077  0.78183289    -0.48700
C519        C  0.14424829  0.81160795  0.72448109     0.73300
O520        O  0.11619954  0.80851478  0.73377046    -0.43500
C521        C  0.14482258  0.80978623  0.86464698     0.78100
O522        O  0.05945895  0.77462548  0.80612743    -0.55400
O523        O  0.14117062  0.78150282  0.85511025    -0.45500
O524        O  0.06829110  0.74223532  0.85035989    -0.51800
C525        C  0.08614706  0.71616028  0.74728756     0.88200
O526        O  0.15255949  0.79512507  0.75107178    -0.53700
O527        O  0.12906190  0.81884302  0.83785179    -0.57000
In528      In  0.24183978  0.90803400  0.54404895     1.36900
C529        C  0.26149114  0.96442804  0.59040949     0.80700
O530        O  0.19571600  0.88538015  0.58833836    -0.57800
O531        O  0.23251096  0.87241237  0.60474494    -0.48700
C532        C  0.20244564  0.86985894  0.97443415     0.73300
O533        O  0.20569531  0.89797758  0.98389401    -0.43500
C534        C  0.29779950  0.92742612  0.49675674     0.78100
O535        O  0.24030716  0.95481176  0.55627894    -0.55400
O536        O  0.28859961  0.90664628  0.53139753    -0.45500
O537        O  0.27272573  0.94562809  0.59981034    -0.51800
C538        C  0.20450596  0.86920642  0.61473991     0.88200
O539        O  0.21882864  0.86135487  0.00087366    -0.53700
O540        O  0.27877760  0.93837444  0.98723469    -0.57000
C541        C  0.16544867  0.83214579  0.68600509    -0.10200
C542        C  0.18378639  0.84880782  0.65366932    -0.11700
C543        C  0.18187564  0.84879270  0.93590714    -0.10200
C544        C  0.16522256  0.83050278  0.90354584    -0.11700
C545        C  0.35345815  0.95165175  0.94632573    -0.10200
C546        C  0.32802272  0.93860482  0.96984651    -0.11700
C547        C  0.51458049  0.00482704  0.51849139    -0.10200
C548        C  0.49880278  0.00757064  0.98621118    -0.11700
C549        C  0.51574479  0.00636196  0.73648121    -0.10200
C550        C  0.49818336  0.00610855  0.76819564    -0.11700
C551        C  0.68563091  0.07488355  0.53406788    -0.10200
C552        C  0.66021687  0.06177105  0.55763824    -0.11700
C553        C  0.84817296  0.18459304  0.60011617    -0.10200
C554        C  0.83152425  0.16625463  0.56778061    -0.11700
C555        C  0.82981094  0.16568374  0.85038243    -0.10200
C556        C  0.84812796  0.18235575  0.81802086    -0.11700
C557        C  0.07490777  0.68587223  0.72044712    -0.10200
C558        C  0.06182336  0.66047362  0.69680784    -0.11700
C559        C  0.95201782  0.35390942  0.80744874    -0.10200
C560        C  0.93897954  0.32848594  0.78388968    -0.11700
C561        C  0.00647521  0.49828499  0.98626877    -0.10200
C562        C  0.00669629  0.51586719  0.51794105    -0.11700
C563        C  0.00783730  0.49929588  0.76812808    -0.10200
C564        C  0.00504736  0.51502428  0.73579512    -0.11700
C565        C  0.59751986  0.94244516  0.69790864    -0.10200
C566        C  0.61051290  0.93010778  0.72070502    -0.11700
C567        C  0.67572022  0.85025651  0.68246012    -0.10200
C568        C  0.67511502  0.83252010  0.65070678    -0.11700
C569        C  0.67614006  0.83240081  0.93263128    -0.10200
C570        C  0.67365559  0.84832317  0.90030495    -0.11700
C571        C  0.73001469  0.99429492  0.86289824    -0.10200
C572        C  0.74272784  0.01961979  0.88673692    -0.11700
C573        C  0.74960861  0.73685370  0.63784451    -0.10200
C574        C  0.73709907  0.74944279  0.61448539    -0.11700
C575        C  0.93031121  0.61045526  0.53247573    -0.10200
C576        C  0.94276352  0.59763387  0.55542568    -0.11700
C577        C  0.84965896  0.67495518  0.56995836    -0.10200
C578        C  0.83195539  0.67437593  0.60170727    -0.11700
C579        C  0.84832723  0.67293436  0.85186307    -0.10200
C580        C  0.83242411  0.67545081  0.81954557    -0.11700
C581        C  0.01958252  0.74306423  0.86744808    -0.10200
C582        C  0.99420686  0.73022689  0.89109828    -0.11700
C583        C  0.61797705  0.68661224  0.97303994    -0.10200
C584        C  0.60486143  0.66103901  0.94976943    -0.11700
C585        C  0.68689396  0.61811306  0.78064831    -0.10200
C586        C  0.66147521  0.60498495  0.80424110    -0.11700
C587        C  0.51633226  0.51455910  0.98667148    -0.10200
C588        C  0.49800040  0.49783757  0.51899575    -0.11700
C589        C  0.51519542  0.51479208  0.76896111    -0.10200
C590        C  0.49849477  0.49645370  0.73665106    -0.11700
C591        C  0.41768090  0.07102367  0.80507821    -0.10200
C592        C  0.40512054  0.08368396  0.78199233    -0.11700
C593        C  0.28584653  0.02023764  0.64057458    -0.10200
C594        C  0.27274064  0.99480464  0.61701475    -0.11700
C595        C  0.33820180  0.18088464  0.56957614    -0.10200
C596        C  0.34124443  0.16532580  0.60194877    -0.11700
C597        C  0.34021557  0.18172544  0.85176511    -0.10200
C598        C  0.34020033  0.16422852  0.82012480    -0.11700
C599        C  0.40757107  0.35138065  0.55418700    -0.10200
C600        C  0.39435294  0.32596851  0.53056643    -0.11700
C601        C  0.07089836  0.41698151  0.94792746    -0.10200
C602        C  0.08327347  0.40404378  0.97078399    -0.11700
C603        C  0.01953093  0.28442093  0.61275905    -0.10200
C604        C  0.99420211  0.27159983  0.63655050    -0.11700
C605        C  0.32653634  0.39484653  0.72359825    -0.10200
C606        C  0.35211772  0.40797099  0.70037418    -0.11700
C607        C  0.26264508  0.27537589  0.86492593    -0.10200
C608        C  0.27523238  0.26279951  0.88820542    -0.11700
C609        C  0.18096218  0.33747678  0.68208195    -0.10200
C610        C  0.16518194  0.34021056  0.64976572    -0.11700
C611        C  0.18067212  0.33928391  0.90000942    -0.10200
C612        C  0.16306278  0.33895331  0.93172480    -0.11700
loop_ 
_geom_bond_atom_site_label_1 
_geom_bond_atom_site_label_2 
_geom_bond_distance 
_geom_bond_site_symmetry_2 
_ccdc_geom_bond_type 
In1           O3   2.223       .  S
In1           O4   2.261       .  S
In1          O12   2.223       .  S
In1           O6   2.243       .  S
In1           O8   2.252       .  S
In1           O9   2.251       .  S
In1          O10   2.220       .  S
In1          O13   2.221       .  S
C2            O8   1.267       .  A
C2           O10   1.261       .  A
C2          C299   1.435       .  S
O3           C11   1.261       .  A
O4           C11   1.268       .  A
C5           O12   1.261       .  A
C5            O6   1.267       .  A
C5          C305   1.434       .  S
C7            O9   1.268       .  A
C7           O13   1.260       .  A
C7          C303   1.436       .  S
C11         C301   1.440       .  S
In14         O16   2.221       .  S
In14         O17   2.249       .  S
In14         O21   2.253       .  S
In14         O22   2.258       .  S
In14         O23   2.221       .  S
In14        O331   2.222   1_554  S
In14        O325   2.243   1_554  S
In14        O332   2.221   1_554  S
C15          O21   1.267       .  A
C15          O23   1.261       .  A
C15         C297   1.436       .  S
O16          C24   1.260       .  A
O17          C24   1.268       .  A
C18          O25   1.261       .  A
C18          O19   1.267       .  A
C18         C306   1.434       .  S
O19        In320   2.243       .  S
C20          O22   1.267   1_556  A
C20         O332   1.261       .  A
C20         C602   1.438       .  S
C24         C304   1.436       .  S
O25        In320   2.222       .  S
O26        In320   2.221       .  S
O26         C326   1.261       .  A
In27         O29   2.222       .  S
In27         O30   2.261       .  S
In27         O38   2.223       .  S
In27         O32   2.242       .  S
In27         O34   2.251       .  S
In27        O341   2.251       .  S
In27        O342   2.220       .  S
In27        O345   2.220       .  S
C28          O36   1.261       .  A
C28         O340   1.267   1_554  A
C28         C294   1.435       .  S
O29          C37   1.261       .  A
O30          C37   1.268       .  A
C31          O38   1.261       .  A
C31          O32   1.267       .  A
C31         C291   1.434       .  S
C33          O35   1.268       .  A
C33          O39   1.260       .  A
C33         C289   1.436       .  S
O34         C334   1.267       .  A
O35        In333   2.251   1_554  S
O36        In333   2.220   1_554  S
C37         C302   1.440       .  S
O39        In333   2.220   1_554  S
In40         O42   2.220       .  S
In40         O43   2.250       .  S
In40         O51   2.223       .  S
In40         O45   2.242       .  S
In40         O47   2.250       .  S
In40         O48   2.259       .  S
In40         O49   2.220       .  S
In40         O52   2.220       .  S
C41          O47   1.267       .  A
C41          O49   1.261       .  A
C41         C287   1.435       .  S
O42          C50   1.260       .  A
O43          C50   1.268       .  A
C44          O51   1.261       .  A
C44          O45   1.267       .  A
C44         C292   1.434       .  S
C46          O48   1.268       .  A
C46          O52   1.261       .  A
C46         C286   1.438       .  S
C50         C290   1.436       .  S
In53         O55   2.214       .  S
In53         O56   2.239       .  S
In53         O64   2.215       .  S
In53         O58   2.238       .  S
In53         O60   2.250       .  S
In53         O61   2.250       .  S
In53         O62   2.217       .  S
In53         O65   2.217       .  S
C54          O60   1.268       .  A
C54          O62   1.261       .  A
C54         C278   1.435       .  S
O55          C63   1.261       .  A
O56          C63   1.268       .  A
C57          O64   1.261       .  A
C57          O58   1.268       .  A
C57         C283   1.431       .  S
C59          O61   1.268       .  A
C59          O65   1.261       .  A
C59         C280   1.435       .  S
C63         C281   1.431       .  S
In66         O68   2.217       .  S
In66         O69   2.250       .  S
In66         O77   2.215       .  S
In66         O71   2.239       .  S
In66         O73   2.250       .  S
In66         O74   2.239       .  S
In66         O75   2.217       .  S
In66         O78   2.213       .  S
C67          O73   1.268       .  A
C67          O75   1.261       .  A
C67         C300   1.435       .  S
O68          C76   1.261       .  A
O69          C76   1.268       .  A
C70          O77   1.261       .  A
C70          O71   1.268       .  A
C70         C282   1.431       .  S
C72          O74   1.268       .  A
C72          O78   1.261       .  A
C72         C284   1.431       .  S
C76         C293   1.435       .  S
In79         O82   2.258       .  S
In79         O86   2.253       .  S
In79         O87   2.249       .  S
In79         O88   2.219       .  S
In79         O91   2.221       .  S
In79        O387   2.221       .  S
In79        O396   2.221       .  S
In79        O390   2.243       .  S
C80          O86   1.267       .  A
C80          O88   1.261       .  A
C80         C276   1.435       .  S
O81        In385   2.221   1_554  S
O81          C89   1.261       .  A
O82         C395   1.267       .  A
C83          O90   1.261       .  A
C83          O84   1.267       .  A
C83         C271   1.433       .  S
O84        In385   2.243   1_554  S
C85          O87   1.268       .  A
C85          O91   1.260       .  A
C85         C273   1.435       .  S
C89         O388   1.267   1_554  A
C89         C269   1.438       .  S
O90        In385   2.221   1_554  S
In92         O94   2.220       .  S
In92         O95   2.248       .  S
In92        O103   2.222       .  S
In92         O97   2.242       .  S
In92         O99   2.252       .  S
In92        O100   2.257       .  S
In92        O101   2.220       .  S
In92        O104   2.220       .  S
C93          O99   1.267       .  A
C93         O101   1.261       .  A
C93         C279   1.436       .  S
O94         C102   1.260       .  A
O95         C102   1.268       .  A
C96         O103   1.261       .  A
C96          O97   1.267       .  A
C96         C272   1.433       .  S
C98         O100   1.268       .  A
C98         O104   1.261       .  A
C98         C267   1.438       .  S
C102        C274   1.435       .  S
In105       O107   2.221       .  S
In105       O108   2.257       .  S
In105       O116   2.222       .  S
In105       O110   2.244       .  S
In105       O112   2.255       .  S
In105       O113   2.248       .  S
In105       O114   2.221       .  S
In105       O117   2.220       .  S
C106        O112   1.267       .  A
C106        O114   1.261       .  A
C106        C265   1.437       .  S
O107        C115   1.261       .  A
O108        C115   1.267       .  A
C109        O116   1.261       .  A
C109        O110   1.267       .  A
C109        C261   1.434       .  S
C111        O113   1.268       .  A
C111        O117   1.260       .  A
C111        C264   1.435       .  S
C115        C260   1.438       .  S
In118       O129   2.223       .  S
In118       O123   2.243       .  S
In118       O125   2.252       .  S
In118       O126   2.258       .  S
In118       O130   2.220       .  S
In118       O426   2.219   1_554  S
In118       O427   2.248   1_554  S
In118       O433   2.220   1_554  S
C119        O127   1.261       .  A
C119        O431   1.267       .  A
C119        C277   1.436       .  S
O120       In424   2.219       .  S
O120        C128   1.260       .  A
O121       In424   2.248       .  S
O121        C128   1.268       .  A
C122        O129   1.261       .  A
C122        O123   1.267       .  A
C122        C262   1.434       .  S
C124        O126   1.268       .  A
C124        O130   1.261       .  A
C124        C268   1.438       .  S
O125        C425   1.267   1_554  A
O127       In424   2.220       .  S
C128        C263   1.435       .  S
In131       O133   2.220   1_455  S
In131       O134   2.249       .  S
In131       O142   2.223       .  S
In131       O136   2.242   1_455  S
In131       O138   2.250   1_455  S
In131       O139   2.259       .  S
In131       O140   2.219       .  S
In131       O143   2.219       .  S
C132        O138   1.267       .  A
C132        O140   1.261   1_655  A
C132        C253   1.434       .  S
O133        C141   1.260   1_655  A
O134        C141   1.268       .  A
C135        O142   1.261       .  A
C135        O136   1.267   1_455  A
C135        C255   1.434       .  S
C137        O139   1.268       .  A
C137        O143   1.261       .  A
C137        C295   1.438       .  S
C141        C257   1.435       .  S
In144       O146   2.220   1_455  S
In144       O147   2.259   1_455  S
In144       O155   2.223   1_455  S
In144       O149   2.242       .  S
In144       O151   2.251       .  S
In144       O152   2.249   1_455  S
In144       O153   2.219       .  S
In144       O156   2.219       .  S
C145        O151   1.267       .  A
C145        O153   1.261       .  A
C145        C252   1.435       .  S
O146        C154   1.261       .  A
O147        C154   1.267       .  A
C148        O155   1.261   1_455  A
C148        O149   1.267       .  A
C148        C256   1.434       .  S
C150        O152   1.268   1_455  A
C150        O156   1.260       .  A
C150        C258   1.435       .  S
C154        C270   1.438       .  S
In157       O159   2.212       .  S
In157       O160   2.239       .  S
In157       O168   2.215       .  S
In157       O162   2.239       .  S
In157       O164   2.251       .  S
In157       O165   2.247       .  S
In157       O166   2.217       .  S
In157       O169   2.217       .  S
C158        O164   1.268       .  A
C158        O166   1.261       .  A
C158        C298   1.436       .  S
O159        C167   1.261       .  A
O160        C167   1.268       .  A
C161        O168   1.261       .  A
C161        O162   1.268       .  A
C161        C250   1.431       .  S
C163        O165   1.267       .  A
C163        O169   1.261       .  A
C163        C254   1.434       .  S
C167        C247   1.430       .  S
In170       O173   2.248       .  S
In170       O177   2.252       .  S
In170       O178   2.239       .  S
In170       O179   2.217       .  S
In170       O182   2.212       .  S
In170       O478   2.217       .  S
In170       O487   2.214       .  S
In170       O481   2.238       .  S
C171        O177   1.268       .  A
C171        O179   1.261       .  A
C171        C266   1.436       .  S
O172       In476   2.217   1_554  S
O172        C180   1.262       .  A
O173        C486   1.267       .  A
C174        O181   1.261       .  A
C174        O175   1.268       .  A
C174        C248   1.430       .  S
O175       In476   2.238   1_554  S
C176        O178   1.268       .  A
C176        O182   1.261       .  A
C176        C249   1.431       .  S
C180        O479   1.267   1_554  A
C180        C245   1.435       .  S
O181       In476   2.214   1_554  S
In183       O185   2.220   1_545  S
In183       O186   2.249       .  S
In183       O194   2.222       .  S
In183       O188   2.242   1_545  S
In183       O190   2.251   1_545  S
In183       O191   2.259       .  S
In183       O192   2.220       .  S
In183       O195   2.220       .  S
C184        O190   1.267       .  A
C184        O192   1.261   1_565  A
C184        C239   1.435       .  S
O185        C193   1.260   1_565  A
O186        C193   1.268       .  A
C187        O194   1.261       .  A
C187        O188   1.267   1_545  A
C187        C244   1.434       .  S
C189        O191   1.268       .  A
C189        O195   1.261       .  A
C189        C285   1.438       .  S
C193        C242   1.435       .  S
In196       O198   2.219   1_545  S
In196       O199   2.259   1_545  S
In196       O207   2.223   1_545  S
In196       O201   2.242       .  S
In196       O203   2.251       .  S
In196       O204   2.249   1_545  S
In196       O205   2.219       .  S
In196       O208   2.220       .  S
C197        O203   1.267       .  A
C197        O205   1.261       .  A
C197        C246   1.435       .  S
O198        C206   1.261       .  A
O199        C206   1.267       .  A
C200        O207   1.261   1_545  A
C200        O201   1.267       .  A
C200        C243   1.434       .  S
C202        O204   1.268   1_545  A
C202        O208   1.260       .  A
C202        C241   1.435       .  S
C206        C259   1.438       .  S
In209       O211   2.217       .  S
In209       O212   2.249       .  S
In209       O220   2.214       .  S
In209       O214   2.237       .  S
In209       O216   2.250       .  S
In209       O217   2.238       .  S
In209       O218   2.216       .  S
In209       O221   2.212       .  S
C210        O216   1.268       .  A
C210        O218   1.261       .  A
C210        C275   1.435       .  S
O211        C219   1.261       .  A
O212        C219   1.267       .  A
C213        O220   1.261       .  A
C213        O214   1.268       .  A
C213        C235   1.430       .  S
C215        O217   1.268       .  A
C215        O221   1.261       .  A
C215        C238   1.430       .  S
C219        C251   1.435       .  S
In222       O224   2.213       .  S
In222       O225   2.238       .  S
In222       O229   2.249       .  S
In222       O230   2.248       .  S
In222       O231   2.216       .  S
In222       O539   2.213       .  S
In222       O533   2.238   1_554  S
In222       O540   2.216   1_554  S
C223        O229   1.268       .  A
C223        O231   1.261       .  A
C223        C288   1.435       .  S
O224        C232   1.261       .  A
O225        C232   1.268       .  A
C226        O233   1.261       .  A
C226        O227   1.268       .  A
C226        C237   1.430       .  S
O227       In528   2.238       .  S
C228        O230   1.268   1_556  A
C228        O540   1.261       .  A
C228        C546   1.435       .  S
C232        C236   1.430       .  S
O233       In528   2.213       .  S
O234       In528   2.216       .  S
O234        C534   1.261       .  A
C235        C236   1.203       .  T
C237        C238   1.203       .  T
C239        C240   1.206       .  T
C240        C534   1.435       .  S
C241        C548   1.206   1_554  T
C242        C547   1.206       .  T
C243        C244   1.205       .  T
C245        C246   1.205       .  T
C247        C248   1.203       .  T
C249        C250   1.203       .  T
C251        C252   1.206       .  T
C253        C254   1.205       .  T
C255        C562   1.205       .  T
C256        C561   1.205   1_554  T
C257        C258   1.206       .  T
C259        C260   1.207       .  T
C261        C262   1.205       .  T
C263        C264   1.205       .  T
C265        C266   1.207   1_565  T
C267        C268   1.207       .  T
C269        C270   1.208       .  T
C271        C272   1.205       .  T
C273        C274   1.206       .  T
C275        C276   1.206   1_455  T
C277        C278   1.206       .  T
C279        C280   1.206       .  T
C281        C588   1.203       .  T
C282        C587   1.203   1_554  T
C283        C284   1.203       .  T
C285        C286   1.208       .  T
C287        C288   1.206   1_545  T
C289        C290   1.206       .  T
C291        C292   1.205       .  T
C293        C294   1.206       .  T
C295        C296   1.208       .  T
C296        C326   1.438       .  S
C297        C298   1.206   1_455  T
C299        C300   1.206       .  T
C301        C302   1.209       .  T
C303        C304   1.206       .  T
C305        C306   1.205       .  T
In307       O309   2.223       .  S
In307       O310   2.261       .  S
In307       O318   2.223       .  S
In307       O312   2.243       .  S
In307       O314   2.252       .  S
In307       O315   2.251       .  S
In307       O316   2.220       .  S
In307       O319   2.221       .  S
C308        O314   1.267       .  A
C308        O316   1.261       .  A
C308        C605   1.435       .  S
O309        C317   1.261       .  A
O310        C317   1.268       .  A
C311        O318   1.261       .  A
C311        O312   1.267       .  A
C311        C611   1.434       .  S
C313        O315   1.268       .  A
C313        O319   1.260       .  A
C313        C609   1.436       .  S
C317        C607   1.440       .  S
In320       O322   2.221       .  S
In320       O323   2.249       .  S
In320       O327   2.253       .  S
In320       O328   2.258       .  S
In320       O329   2.221       .  S
C321        O327   1.267       .  A
C321        O329   1.261       .  A
C321        C603   1.436       .  S
O322        C330   1.260       .  A
O323        C330   1.268       .  A
C324        O331   1.261       .  A
C324        O325   1.267       .  A
C324        C612   1.434       .  S
C326        O328   1.267       .  A
C330        C610   1.436       .  S
In333       O335   2.222       .  S
In333       O336   2.261       .  S
In333       O344   2.223       .  S
In333       O338   2.242       .  S
In333       O340   2.251       .  S
C334        O342   1.261       .  A
C334        C600   1.435       .  S
O335        C343   1.261       .  A
O336        C343   1.268       .  A
C337        O344   1.261       .  A
C337        O338   1.267       .  A
C337        C597   1.434       .  S
C339        O341   1.268       .  A
C339        O345   1.260       .  A
C339        C595   1.436       .  S
C343        C608   1.440       .  S
In346       O348   2.220       .  S
In346       O349   2.250       .  S
In346       O357   2.223       .  S
In346       O351   2.242       .  S
In346       O353   2.250       .  S
In346       O354   2.259       .  S
In346       O355   2.220       .  S
In346       O358   2.220       .  S
C347        O353   1.267       .  A
C347        O355   1.261       .  A
C347        C593   1.435       .  S
O348        C356   1.260       .  A
O349        C356   1.268       .  A
C350        O357   1.261       .  A
C350        O351   1.267       .  A
C350        C598   1.434       .  S
C352        O354   1.268       .  A
C352        O358   1.261       .  A
C352        C592   1.438       .  S
C356        C596   1.436       .  S
In359       O361   2.214       .  S
In359       O362   2.239       .  S
In359       O370   2.215       .  S
In359       O364   2.238       .  S
In359       O366   2.250       .  S
In359       O367   2.250       .  S
In359       O368   2.217       .  S
In359       O371   2.217       .  S
C360        O366   1.268       .  A
C360        O368   1.261       .  A
C360        C584   1.435       .  S
O361        C369   1.261       .  A
O362        C369   1.268       .  A
C363        O370   1.261       .  A
C363        O364   1.268       .  A
C363        C589   1.431       .  S
C365        O367   1.268       .  A
C365        O371   1.261       .  A
C365        C586   1.435       .  S
C369        C587   1.431       .  S
In372       O374   2.217       .  S
In372       O375   2.250       .  S
In372       O383   2.215       .  S
In372       O377   2.239       .  S
In372       O379   2.250       .  S
In372       O380   2.239       .  S
In372       O381   2.217       .  S
In372       O384   2.213       .  S
C373        O379   1.268       .  A
C373        O381   1.261       .  A
C373        C606   1.435       .  S
O374        C382   1.261       .  A
O375        C382   1.268       .  A
C376        O383   1.261       .  A
C376        O377   1.268       .  A
C376        C588   1.431       .  S
C378        O380   1.268       .  A
C378        O384   1.261       .  A
C378        C590   1.431       .  S
C382        C599   1.435       .  S
In385       O388   2.258       .  S
In385       O392   2.253       .  S
In385       O393   2.249       .  S
In385       O394   2.219       .  S
In385       O397   2.221       .  S
C386        O392   1.267       .  A
C386        O394   1.261       .  A
C386        C582   1.435       .  S
O387        C395   1.261       .  A
C389        O396   1.261       .  A
C389        O390   1.267       .  A
C389        C577   1.433       .  S
C391        O393   1.268       .  A
C391        O397   1.260       .  A
C391        C579   1.435       .  S
C395        C575   1.438       .  S
In398       O400   2.220       .  S
In398       O401   2.248       .  S
In398       O409   2.222       .  S
In398       O403   2.242       .  S
In398       O405   2.252       .  S
In398       O406   2.257       .  S
In398       O407   2.220       .  S
In398       O410   2.220       .  S
C399        O405   1.267       .  A
C399        O407   1.261       .  A
C399        C585   1.436       .  S
O400        C408   1.260       .  A
O401        C408   1.268       .  A
C402        O409   1.261       .  A
C402        O403   1.267       .  A
C402        C578   1.433       .  S
C404        O406   1.268       .  A
C404        O410   1.261       .  A
C404        C573   1.438       .  S
C408        C580   1.435       .  S
In411       O413   2.221       .  S
In411       O414   2.257       .  S
In411       O422   2.222       .  S
In411       O416   2.244       .  S
In411       O418   2.255       .  S
In411       O419   2.248       .  S
In411       O420   2.221       .  S
In411       O423   2.220       .  S
C412        O418   1.267       .  A
C412        O420   1.261       .  A
C412        C571   1.437       .  S
O413        C421   1.261       .  A
O414        C421   1.267       .  A
C415        O422   1.261       .  A
C415        O416   1.267       .  A
C415        C567   1.434       .  S
C417        O419   1.268       .  A
C417        O423   1.260       .  A
C417        C570   1.435       .  S
C421        C566   1.438       .  S
In424       O435   2.223       .  S
In424       O429   2.243       .  S
In424       O431   2.252       .  S
In424       O432   2.258       .  S
In424       O436   2.220       .  S
C425        O433   1.261       .  A
C425        C583   1.436       .  S
O426        C434   1.260       .  A
O427        C434   1.268       .  A
C428        O435   1.261       .  A
C428        O429   1.267       .  A
C428        C568   1.434       .  S
C430        O432   1.268       .  A
C430        O436   1.261       .  A
C430        C574   1.438       .  S
C434        C569   1.435       .  S
In437       O439   2.220   1_455  S
In437       O440   2.249       .  S
In437       O448   2.223       .  S
In437       O442   2.242   1_455  S
In437       O444   2.250   1_455  S
In437       O445   2.259       .  S
In437       O446   2.219       .  S
In437       O449   2.219       .  S
C438        O444   1.267       .  A
C438        O446   1.261   1_655  A
C438        C559   1.434       .  S
O439        C447   1.260   1_655  A
O440        C447   1.268       .  A
C441        O448   1.261       .  A
C441        O442   1.267   1_455  A
C441        C561   1.434       .  S
C443        O445   1.268       .  A
C443        O449   1.261       .  A
C443        C601   1.438       .  S
C447        C563   1.435       .  S
In450       O452   2.220   1_455  S
In450       O453   2.259   1_455  S
In450       O461   2.223   1_455  S
In450       O455   2.242       .  S
In450       O457   2.251       .  S
In450       O458   2.249   1_455  S
In450       O459   2.219       .  S
In450       O462   2.219       .  S
C451        O457   1.267       .  A
C451        O459   1.261       .  A
C451        C558   1.435       .  S
O452        C460   1.261       .  A
O453        C460   1.267       .  A
C454        O461   1.261   1_455  A
C454        O455   1.267       .  A
C454        C562   1.434       .  S
C456        O458   1.268   1_455  A
C456        O462   1.260       .  A
C456        C564   1.435       .  S
C460        C576   1.438       .  S
In463       O465   2.212       .  S
In463       O466   2.239       .  S
In463       O474   2.215       .  S
In463       O468   2.239       .  S
In463       O470   2.251       .  S
In463       O471   2.248       .  S
In463       O472   2.217       .  S
In463       O475   2.217       .  S
C464        O470   1.268       .  A
C464        O472   1.261       .  A
C464        C604   1.436       .  S
O465        C473   1.261       .  A
O466        C473   1.268       .  A
C467        O474   1.261       .  A
C467        O468   1.268       .  A
C467        C556   1.431       .  S
C469        O471   1.267       .  A
C469        O475   1.261       .  A
C469        C560   1.434       .  S
C473        C553   1.430       .  S
In476       O479   2.248       .  S
In476       O483   2.252       .  S
In476       O484   2.239       .  S
In476       O485   2.217       .  S
In476       O488   2.212       .  S
C477        O483   1.268       .  A
C477        O485   1.261       .  A
C477        C572   1.436       .  S
O478        C486   1.262       .  A
C480        O487   1.261       .  A
C480        O481   1.268       .  A
C480        C554   1.430       .  S
C482        O484   1.268       .  A
C482        O488   1.261       .  A
C482        C555   1.431       .  S
C486        C551   1.435       .  S
In489       O491   2.220   1_545  S
In489       O492   2.249       .  S
In489       O500   2.222       .  S
In489       O494   2.242   1_545  S
In489       O496   2.251   1_545  S
In489       O497   2.259       .  S
In489       O498   2.220       .  S
In489       O501   2.220       .  S
C490        O496   1.267       .  A
C490        O498   1.261   1_565  A
C490        C545   1.435       .  S
O491        C499   1.260   1_565  A
O492        C499   1.268       .  A
C493        O500   1.261       .  A
C493        O494   1.267   1_545  A
C493        C550   1.434       .  S
C495        O497   1.268       .  A
C495        O501   1.261       .  A
C495        C591   1.438       .  S
C499        C548   1.435       .  S
In502       O504   2.219   1_545  S
In502       O505   2.259   1_545  S
In502       O513   2.223   1_545  S
In502       O507   2.242       .  S
In502       O509   2.251       .  S
In502       O510   2.249   1_545  S
In502       O511   2.219       .  S
In502       O514   2.220       .  S
C503        O509   1.267       .  A
C503        O511   1.261       .  A
C503        C552   1.435       .  S
O504        C512   1.261       .  A
O505        C512   1.267       .  A
C506        O513   1.261   1_545  A
C506        O507   1.267       .  A
C506        C549   1.434       .  S
C508        O510   1.268   1_545  A
C508        O514   1.260       .  A
C508        C547   1.435       .  S
C512        C565   1.438       .  S
In515       O517   2.217       .  S
In515       O518   2.249       .  S
In515       O526   2.214       .  S
In515       O520   2.237       .  S
In515       O522   2.250       .  S
In515       O523   2.238       .  S
In515       O524   2.216       .  S
In515       O527   2.212       .  S
C516        O522   1.268       .  A
C516        O524   1.261       .  A
C516        C581   1.435       .  S
O517        C525   1.261       .  A
O518        C525   1.267       .  A
C519        O526   1.261       .  A
C519        O520   1.268       .  A
C519        C541   1.430       .  S
C521        O523   1.268       .  A
C521        O527   1.261       .  A
C521        C544   1.430       .  S
C525        C557   1.435       .  S
In528       O530   2.213       .  S
In528       O531   2.238       .  S
In528       O535   2.249       .  S
In528       O536   2.248       .  S
In528       O537   2.216       .  S
C529        O535   1.268       .  A
C529        O537   1.261       .  A
C529        C594   1.435       .  S
O530        C538   1.261       .  A
O531        C538   1.268       .  A
C532        O539   1.261   1_556  A
C532        O533   1.268       .  A
C532        C543   1.430       .  S
C534        O536   1.268       .  A
C538        C542   1.430       .  S
C541        C542   1.203       .  T
C543        C544   1.203       .  T
C545        C546   1.206       .  T
C549        C550   1.205       .  T
C551        C552   1.205       .  T
C553        C554   1.203       .  T
C555        C556   1.203       .  T
C557        C558   1.206       .  T
C559        C560   1.205       .  T
C563        C564   1.206       .  T
C565        C566   1.207       .  T
C567        C568   1.205       .  T
C569        C570   1.205       .  T
C571        C572   1.207   1_565  T
C573        C574   1.207       .  T
C575        C576   1.208       .  T
C577        C578   1.205       .  T
C579        C580   1.206       .  T
C581        C582   1.206   1_455  T
C583        C584   1.206       .  T
C585        C586   1.206       .  T
C589        C590   1.203       .  T
C591        C592   1.208       .  T
C593        C594   1.206   1_545  T
C595        C596   1.206       .  T
C597        C598   1.205       .  T
C599        C600   1.206       .  T
C601        C602   1.208       .  T
C603        C604   1.206   1_455  T
C605        C606   1.206       .  T
C607        C608   1.209       .  T
C609        C610   1.206       .  T
C611        C612   1.205       .  T
