geometry optimzed in LAMMPS
_audit_creation_date              2020-12-01 
_audit_creation_method            'lammps2cif' 
_symmetry_space_group_name_H-M    'P1' 
_symmetry_Int_Tables_number       1 
_symmetry_cell_setting            triclinic 
loop_ 
_symmetry_equiv_pos_as_xyz 
  x,y,z 
_cell_length_a                    68.83237113 
_cell_length_b                    68.82787815811703 
_cell_length_c                    43.41910838791134 
_cell_angle_alpha                 90.22103596809052 
_cell_angle_beta                  89.90314864721847 
_cell_angle_gamma                 120.19244356624435 
loop_ 
_atom_site_label 
_atom_site_type_symbol 
_atom_site_fract_x 
_atom_site_fract_y 
_atom_site_fract_z 
_atom_site_charge 
O1          O  0.44560455  0.58576907  0.06245735    -0.57300
C2          C  0.39546089  0.53994547  0.99995981     0.75300
O3          O  0.43676092  0.51774159  0.04422687    -0.58400
C4          C  0.45293138  0.58340093  0.08816697     0.75300
C5          C  0.38686781  0.52785323  0.09687500     0.77700
Cd6        Cd  0.42296523  0.54489711  0.05200445     1.37500
O7          O  0.41238604  0.55903723  0.00610413    -0.57300
O8          O  0.39241975  0.54495925  0.08032550    -0.56100
C9          C  0.45171459  0.52986098  0.02463026     0.77700
O10         O  0.39803641  0.51789692  0.09259786    -0.58500
O11         O  0.39200968  0.52382645  0.01738451    -0.56900
O12         O  0.44723389  0.56352766  0.09591562    -0.56900
O13         O  0.45319176  0.54848036  0.01838930    -0.56100
O14         O  0.57411666  0.42595584  0.92849754    -0.57300
C15         C  0.62071218  0.47756575  0.98218677     0.75300
O16         O  0.61699837  0.49676108  0.89009212    -0.58400
C17         C  0.56182165  0.42295627  0.90521883     0.75300
C18         C  0.56141570  0.48313505  0.94701996     0.77700
Cd19       Cd  0.59224944  0.46778746  0.92876064     1.37500
O20         O  0.60650062  0.45753906  0.97461551    -0.57300
O21         O  0.56477155  0.46976494  0.96298884    -0.56100
C22         C  0.62731505  0.48653787  0.88246586     0.77700
O23         O  0.57260998  0.48984781  0.92222409    -0.58500
O24         O  0.62151199  0.49284021  0.96520192    -0.56900
O25         O  0.56353153  0.44053392  0.89341686    -0.56900
O26         O  0.62070064  0.46780942  0.89532309    -0.56100
O27         O  0.89896510  0.80365309  0.09903660    -0.57300
C28         C  0.95268555  0.80688081  0.15080868     0.75300
O29         O  0.90488441  0.74251472  0.10007055    -0.58400
C30         C  0.88879226  0.79440045  0.07413029     0.75300
C31         C  0.95272492  0.80014222  0.04966844     0.77700
Cd32       Cd  0.92123218  0.78435342  0.10040057     1.37500
O33         O  0.93720795  0.81119580  0.14486735    -0.57300
O34         O  0.94544235  0.81193215  0.06198214    -0.56100
C35         C  0.89035480  0.73869529  0.12075124     0.77700
O36         O  0.94509890  0.78050351  0.06045393    -0.58500
O37         O  0.95313127  0.79207715  0.13397996    -0.56900
O38         O  0.89354069  0.78052688  0.06209873    -0.56900
O39         O  0.89083076  0.75582643  0.13229613    -0.56100
O40         O  0.76790928  0.51699345  0.22389674    -0.57300
C41         C  0.71821832  0.51839063  0.17079160     0.75300
O42         O  0.72498408  0.54278523  0.26340829    -0.58400
C43         C  0.78100793  0.52848862  0.24563261     0.75300
C44         C  0.77658526  0.58383229  0.19913504     0.77700
Cd45       Cd  0.74803535  0.53864921  0.22214245     1.37500
O46         O  0.73455486  0.51507660  0.17502250    -0.57300
O47         O  0.77329476  0.56649891  0.18455545    -0.56100
C48         C  0.71539029  0.52236774  0.27177297     0.77700
O49         O  0.76619548  0.58039716  0.22451450    -0.58500
O50         O  0.71575867  0.53060635  0.19042947    -0.56900
O51         O  0.77877352  0.54449091  0.25582491    -0.56900
O52         O  0.72133530  0.51008889  0.25763225    -0.56100
O53         O  0.23158146  0.76308754  0.26577383    -0.57300
C54         C  0.28427514  0.80928490  0.32355187     0.75300
O55         O  0.28757879  0.80654437  0.24350881    -0.58400
C56         C  0.22595580  0.76367918  0.23815720     0.75300
C57         C  0.22692102  0.82031453  0.29405049     0.77700
Cd58       Cd  0.25620348  0.80446066  0.27121940     1.37500
O59         O  0.28838395  0.82544397  0.30577194    -0.57300
O60         O  0.22988818  0.80584781  0.30768611    -0.56100
C61         C  0.29308025  0.82449564  0.22901131     0.77700
O62         O  0.23808117  0.82830998  0.26945391    -0.58500
O63         O  0.26683074  0.79059279  0.31746543    -0.56900
O64         O  0.23445048  0.78294222  0.22617167    -0.56900
O65         O  0.28104198  0.83347622  0.23325499    -0.56100
O66         O  0.10384424  0.91576499  0.39537865    -0.57300
C67         C  0.05369883  0.86438372  0.33776872     0.75300
O68         O  0.09744017  0.84872304  0.39188385    -0.58400
C69         C  0.11392120  0.91623621  0.42011988     0.75300
C70         C  0.04911136  0.86017323  0.44233823     0.77700
Cd71       Cd  0.08139847  0.87433972  0.39266865     1.37500
O72         O  0.06696025  0.88454655  0.34602927    -0.57300
O73         O  0.05550699  0.87810675  0.42732979    -0.56100
C74         C  0.11332070  0.86106183  0.37358213     0.77700
O75         O  0.05748225  0.84818273  0.43414293    -0.58500
O76         O  0.05317926  0.84938167  0.35509137    -0.56900
O77         O  0.10878849  0.89740304  0.43173700    -0.56900
O78         O  0.11381920  0.87872489  0.36449638    -0.56100
O79         O  0.60000056  0.14366489  0.49663131    -0.57300
C80         C  0.55552165  0.13060958  0.41947082     0.75300
O81         O  0.61279114  0.11986856  0.40864572    -0.58400
C82         C  0.61384748  0.13745060  0.50424268     0.75300
C83         C  0.55656706  0.07335038  0.46389047     0.77700
Cd84       Cd  0.58692012  0.12012836  0.44857949     1.37500
O85         O  0.56283997  0.13769870  0.44645411    -0.57300
O86         O  0.55515237  0.08953497  0.47525357    -0.56100
C87         C  0.62210141  0.14076155  0.40295875     0.77700
O88         O  0.57241035  0.07861886  0.44475297    -0.58500
O89         O  0.56253914  0.11869312  0.40680473    -0.56900
O90         O  0.61484006  0.12343719  0.48635578    -0.56900
O91         O  0.61509360  0.15163359  0.41840406    -0.56100
O92         O  0.43654305  0.85035995  0.56277607    -0.57300
C93         C  0.38568753  0.85136564  0.50834180     0.75300
O94         O  0.38631853  0.84313321  0.59405720    -0.58400
C95         C  0.44549156  0.85857294  0.58868522     0.75300
C96         C  0.44748515  0.91597382  0.53911108     0.77700
Cd97       Cd  0.41538797  0.87099406  0.56049647     1.37500
O98         O  0.39934818  0.84482215  0.51552597    -0.57300
O99         O  0.44336497  0.89830603  0.52472061    -0.56100
C100        C  0.38051801  0.85600260  0.60682354     0.77700
O101        O  0.43645566  0.91309055  0.56378994    -0.58500
O102        O  0.38603921  0.86656575  0.52522853    -0.56900
O103        O  0.44038096  0.87215820  0.60072569    -0.56900
O104        O  0.39137874  0.87648899  0.59871631    -0.56100
O105        O  0.90747074  0.09939896  0.60111188    -0.57300
C106        C  0.95637638  0.15170658  0.65911117     0.75300
O107        O  0.95224135  0.16913942  0.56636897    -0.58400
C108        C  0.89670886  0.09855062  0.57690338     0.75300
C109        C  0.89455864  0.15203594  0.62764724     0.77700
Cd110      Cd  0.92747994  0.14081966  0.60557831     1.37500
O111        O  0.94267378  0.13139251  0.65196120    -0.57300
O112        O  0.89575854  0.13530773  0.63704452    -0.56100
C113        C  0.96090631  0.15765010  0.55702141     0.77700
O114        O  0.90890417  0.16416374  0.60742339    -0.58500
O115        O  0.95652979  0.16639408  0.64152616    -0.56900
O116        O  0.90025292  0.11720549  0.56638349    -0.56900
O117        O  0.95392934  0.13883635  0.56991509    -0.56100
O118        O  0.73337350  0.21233797  0.69337590    -0.57300
C119        C  0.78086966  0.24514308  0.76817071     0.75300
O120        O  0.72613293  0.17475315  0.77860684    -0.58400
C121        C  0.71762031  0.19226606  0.68883227     0.75300
C122        C  0.77903888  0.18751243  0.71483010     0.77700
Cd123      Cd  0.74962617  0.20288634  0.73867540     1.37500
O124        O  0.77069146  0.24490614  0.74365044    -0.57300
O125        O  0.77587449  0.20193978  0.70130718    -0.56100
C126        C  0.71697716  0.18586417  0.78759575     0.77700
O127        O  0.76840263  0.17979049  0.73987017    -0.58500
O128        O  0.77723497  0.22622845  0.77751297    -0.56900
O129        O  0.71702233  0.17768108  0.70708351    -0.56900
O130        O  0.72329463  0.20436766  0.77417744    -0.56100
O131        O  0.27059240  0.49104767  0.81995342    -0.57300
C132        C  0.22184466  0.47537373  0.75006545     0.75300
O133        O  0.27631878  0.45905126  0.73716114    -0.58400
C134        C  0.28610782  0.48656916  0.82470479     0.75300
C135        C  0.22181454  0.42000316  0.80058045     0.77700
Cd136      Cd  0.25300672  0.46403496  0.77679120     1.37500
O137        O  0.23300574  0.48564540  0.77392906    -0.57300
O138        O  0.22561276  0.43802354  0.81366396    -0.56100
C139        C  0.28329095  0.47834312  0.72543524     0.77700
O140        O  0.23319441  0.42220326  0.77646702    -0.58500
O141        O  0.22466227  0.45967219  0.74005042    -0.56900
O142        O  0.28596258  0.47155470  0.80762462    -0.56900
O143        O  0.27581851  0.49011723  0.73717992    -0.56100
O144        O  0.10526288  0.19575911  0.90370923    -0.57300
C145        C  0.05878219  0.20056887  0.84572811     0.75300
O146        O  0.06170666  0.22399526  0.93558966    -0.58400
C147        C  0.11874781  0.20749776  0.92500369     0.75300
C148        C  0.11408036  0.26539018  0.88129072     0.77700
Cd149      Cd  0.08712482  0.21928274  0.89965358     1.37500
O150        O  0.07549731  0.19777734  0.84965051    -0.57300
O151        O  0.10955804  0.24914652  0.86335899    -0.56100
C152        C  0.05450463  0.20510373  0.94845375     0.77700
O153        O  0.10656618  0.26045114  0.90850293    -0.58500
O154        O  0.05503087  0.21076217  0.86712721    -0.56900
O155        O  0.11830333  0.22498347  0.93279146    -0.56900
O156        O  0.06239411  0.19315825  0.93862712    -0.56100
O157        O  0.91477601  0.81829445  0.60828312    -0.57300
C158        C  0.86045615  0.81246332  0.66171823     0.75300
O159        O  0.84735771  0.79395596  0.56691154    -0.58400
C160        C  0.91617628  0.81135954  0.58169880     0.75300
C161        C  0.85972612  0.75068940  0.62664365     0.77700
Cd162      Cd  0.87289953  0.79605804  0.60907826     1.37500
O163        O  0.88090727  0.82032903  0.65430978    -0.57300
O164        O  0.87288944  0.76768563  0.64263411    -0.56100
C165        C  0.85683141  0.81520545  0.56443742     0.77700
O166        O  0.85224845  0.75448853  0.60205477    -0.58500
O167        O  0.84593596  0.79651547  0.64527542    -0.56900
O168        O  0.89784506  0.79704444  0.56933192    -0.56900
O169        O  0.87292681  0.82664400  0.58264981    -0.56100
O170        O  0.76570905  0.53045822  0.72790971    -0.57300
C171        C  0.81768534  0.53299568  0.66944018     0.75300
O172        O  0.83231359  0.59302399  0.71900228    -0.58400
C173        C  0.76535917  0.54159501  0.75110026     0.75300
C174        C  0.82336027  0.53431118  0.77062265     0.77700
Cd175      Cd  0.80708155  0.55156013  0.72245346     1.37500
O176        O  0.79733712  0.52639366  0.67624452    -0.57300
O177        O  0.80668873  0.52212828  0.75353366    -0.56100
C178        C  0.82047116  0.59576796  0.69894557     0.77700
O179        O  0.83296164  0.55537228  0.76596284    -0.58500
O180        O  0.83234576  0.54778521  0.68701371    -0.56900
O181        O  0.78421757  0.55730877  0.76036215    -0.56900
O182        O  0.80296229  0.57816911  0.69000339    -0.56100
O183        O  0.18863804  0.08629581  0.09796782    -0.57300
C184        C  0.19247007  0.13766910  0.15636401     0.75300
O185        O  0.25371116  0.15309031  0.10532683    -0.58400
C186        C  0.19581864  0.08572514  0.07122158     0.75300
C187        C  0.19680612  0.14790338  0.05698052     0.77700
Cd188      Cd  0.21174032  0.12806485  0.10310865     1.37500
O189        O  0.18537308  0.11750303  0.14805689    -0.57300
O190        O  0.18372168  0.13110217  0.07311602    -0.56100
C191        C  0.25711211  0.14035625  0.12278764     0.77700
O192        O  0.21767856  0.15628480  0.06219230    -0.58500
O193        O  0.20863527  0.15258116  0.14088308    -0.56900
O194        O  0.21065059  0.10443108  0.06036272    -0.56900
O195        O  0.23975698  0.12221924  0.13060592    -0.56100
O196        O  0.47612853  0.23971397  0.23867456    -0.57300
C197        C  0.47686201  0.19055286  0.18377812     0.75300
O198        O  0.45047815  0.16863916  0.27363545    -0.58400
C199        C  0.46466503  0.24118060  0.26050688     0.75300
C200        C  0.40953826  0.18072945  0.21040652     0.77700
Cd201      Cd  0.45454440  0.19791964  0.23529254     1.37500
O202        O  0.48141283  0.21025984  0.19114164    -0.57300
O203        O  0.42720911  0.19397125  0.19579741    -0.56100
C204        C  0.47010454  0.18054448  0.28467462     0.77700
O205        O  0.41247855  0.17496074  0.23694564    -0.58500
O206        O  0.46238175  0.17481157  0.20033942    -0.56900
O207        O  0.44821222  0.22279766  0.26966506    -0.56900
O208        O  0.48167217  0.19994070  0.27328477    -0.56100
O209        O  0.85904861  0.45729246  0.47635629    -0.57300
C210        C  0.87540960  0.42492958  0.40428365     0.75300
O211        O  0.88756129  0.49123729  0.38544377    -0.58400
C212        C  0.86582022  0.47762052  0.48349073     0.75300
C213        C  0.92866871  0.48223965  0.45206691     0.77700
Cd214      Cd  0.88391573  0.46693782  0.43016941     1.37500
O215        O  0.86348901  0.42532091  0.42639883    -0.57300
O216        O  0.91192738  0.46354267  0.45953109    -0.56100
C217        C  0.86662195  0.48084952  0.37972360     0.77700
O218        O  0.92488757  0.49446766  0.43404737    -0.58500
O219        O  0.89086233  0.44376981  0.39469723    -0.56900
O220        O  0.88042289  0.49231542  0.46585477    -0.56900
O221        O  0.85439434  0.46470394  0.39743006    -0.56100
O222        O  0.14628073  0.58481163  0.55673623    -0.57300
C223        C  0.15293068  0.53716834  0.50728144     0.75300
O224        O  0.12366237  0.51546843  0.59615321    -0.58400
C225        C  0.13593667  0.58563554  0.58044885     0.75300
C226        C  0.08233723  0.52517240  0.53389272     0.77700
Cd227      Cd  0.12785064  0.54323098  0.55628953     1.37500
O228        O  0.13856783  0.52106647  0.52350767    -0.57300
O229        O  0.09945877  0.53910213  0.51887335    -0.56100
C230        C  0.14319107  0.52768273  0.60731769     0.77700
O231        O  0.08617132  0.51856215  0.55915790    -0.58500
O232        O  0.15557574  0.55638080  0.51336063    -0.56900
O233        O  0.12184363  0.56696542  0.59207046    -0.56900
O234        O  0.15499368  0.54674515  0.59503098    -0.56100
O235        O  0.15925060  0.20877595  0.35407991    -0.57300
C236        C  0.09496425  0.20799436  0.41764739     0.75300
O237        O  0.16498772  0.22283245  0.42765858    -0.58400
C238        C  0.14334657  0.19327516  0.33876438     0.75300
C239        C  0.15006689  0.26190181  0.36425620     0.77700
Cd240      Cd  0.13626413  0.21756730  0.38813748     1.37500
O241        O  0.09477635  0.19805408  0.39284804    -0.57300
O242        O  0.13284300  0.24430152  0.35470426    -0.56100
C243        C  0.15288083  0.20339383  0.43912674     0.77700
O244        O  0.16167835  0.25907554  0.38452902    -0.58500
O245        O  0.11410131  0.22262262  0.42767488    -0.56900
O246        O  0.12371415  0.18893683  0.34601391    -0.56900
O247        O  0.13372327  0.19139082  0.42707984    -0.56100
O248        O  0.25500241  0.48786657  0.26539352    -0.57300
C249        C  0.20818716  0.48744782  0.32667151     0.75300
O250        O  0.18350879  0.46191499  0.23747881    -0.58400
C251        C  0.25537646  0.47642316  0.24267013     0.75300
C252        C  0.19451348  0.41885477  0.29280710     0.77700
Cd253      Cd  0.21338487  0.46511700  0.27317539     1.37500
O254        O  0.22521930  0.48507171  0.32371656    -0.57300
O255        O  0.20852508  0.43550331  0.30859939    -0.56100
C256        C  0.19505023  0.48211283  0.22830312     0.77700
O257        O  0.18850885  0.42345170  0.26755296    -0.58500
O258        O  0.19385553  0.47950230  0.30518240    -0.56900
O259        O  0.23673557  0.45946640  0.23551144    -0.56900
O260        O  0.21470126  0.49338320  0.23914661    -0.56100
O261        O  0.45580920  0.84938733  0.01628605    -0.57300
C262        C  0.42550421  0.86538801  0.09243604     0.75300
O263        O  0.49616962  0.88059784  0.10020995    -0.58400
C264        C  0.47591920  0.85717636  0.00717312     0.75300
C265        C  0.47791970  0.91947816  0.04100539     0.77700
Cd266      Cd  0.46653887  0.87520236  0.06210411     1.37500
O267        O  0.42521563  0.85291295  0.07054894    -0.57300
O268        O  0.46130856  0.90166376  0.03064043    -0.56100
C269        C  0.48481889  0.86102568  0.11154871     0.77700
O270        O  0.48975452  0.91687542  0.06119729    -0.58500
O271        O  0.44448916  0.88200081  0.09935818    -0.56900
O272        O  0.49096789  0.87234795  0.02388096    -0.56900
O273        O  0.46563956  0.84853008  0.09979112    -0.56100
O274        O  0.57862407  0.14468083  0.94027065    -0.57300
C275        C  0.52875145  0.14245666  0.99614075     0.75300
O276        O  0.50828405  0.11580949  0.90570894    -0.58400
C277        C  0.58081074  0.13123549  0.92249061     0.75300
C278        C  0.51960597  0.07516638  0.96679887     0.77700
Cd279      Cd  0.53710631  0.12059647  0.94489985     1.37500
O280        O  0.54829642  0.14571879  0.99089621    -0.57300
O281        O  0.53180482  0.09228009  0.98318513    -0.56100
C282        C  0.52095226  0.13448293  0.89268428     0.77700
O283        O  0.51491951  0.07894382  0.94004782    -0.58500
O284        O  0.51360795  0.12967220  0.97734032    -0.56900
O285        O  0.56313517  0.11275469  0.91698565    -0.56900
O286        O  0.54061846  0.14582194  0.90342264    -0.56100
O287        O  0.81424749  0.91529529  0.90633022    -0.57300
C288        C  0.81260075  0.86543202  0.84817186     0.75300
O289        O  0.78778705  0.84366253  0.93834042    -0.58400
C290        C  0.80500343  0.91560278  0.93149786     0.75300
C291        C  0.74894715  0.86061794  0.87974702     0.77700
Cd292      Cd  0.79336124  0.87383492  0.90163498     1.37500
O293        O  0.79784000  0.85000273  0.86478657    -0.57300
O294        O  0.76663336  0.87597090  0.86733272    -0.56100
C295        C  0.80827720  0.85327892  0.94643683     0.77700
O296        O  0.75169997  0.85104153  0.90287384    -0.58500
O297        O  0.81883094  0.88548601  0.85613457    -0.56900
O298        O  0.79060635  0.89669587  0.94225068    -0.56900
O299        O  0.82115916  0.87221090  0.93431546    -0.56100
O300        O  0.52583114  0.78754514  0.81827758    -0.57300
C301        C  0.54154456  0.75536200  0.74708979     0.75300
O302        O  0.55316275  0.82327621  0.72973658    -0.58400
C303        C  0.52807253  0.80687655  0.82168286     0.75300
C304        C  0.59592142  0.81551548  0.79308764     0.77700
Cd305      Cd  0.55042662  0.79780795  0.77177802     1.37500
O306        O  0.53161022  0.75647088  0.77113950    -0.57300
O307        O  0.57957248  0.79732772  0.80278197    -0.56100
C308        C  0.53326198  0.81055031  0.72003016     0.77700
O309        O  0.59140032  0.82628993  0.77349006    -0.58500
O310        O  0.55595107  0.77391676  0.73536168    -0.56900
O311        O  0.54047639  0.82151131  0.80221189    -0.56900
O312        O  0.52188497  0.79200674  0.73382525    -0.56100
O313        O  0.14453972  0.57081880  0.07069901    -0.57300
C314        C  0.13741614  0.61444869  0.00861252     0.75300
O315        O  0.08017728  0.57126783  0.06707857    -0.58400
C316        C  0.13666629  0.56231103  0.09686920     0.75300
C317        C  0.13765390  0.62539742  0.10980325     0.77700
Cd318      Cd  0.12176352  0.58942058  0.06545459     1.37500
O319        O  0.14554356  0.60264967  0.01829439    -0.57300
O320        O  0.15043907  0.62035601  0.09523271    -0.56100
C321        C  0.07677017  0.55579314  0.04810844     0.77700
O322        O  0.11683128  0.61389783  0.10361216    -0.58500
O323        O  0.12242418  0.61460418  0.02531934    -0.56900
O324        O  0.12182005  0.56610601  0.10777903    -0.56900
O325        O  0.09407721  0.55589904  0.03805227    -0.56100
O326        O  0.85837197  0.44186638  0.94310476    -0.57300
C327        C  0.85640446  0.39147571  0.00669016     0.75300
O328        O  0.87855414  0.39108582  0.91553084    -0.58400
C329        C  0.86758590  0.44919470  0.91707058     0.75300
C330        C  0.92165890  0.44509922  0.97069225     0.77700
Cd331      Cd  0.87567265  0.41762759  0.95130177     1.37500
O332        O  0.84957377  0.40442836  0.99701694    -0.57300
O333        O  0.90548097  0.44492454  0.98485510    -0.56100
C334        C  0.85772902  0.37999177  0.90936474     0.77700
O335        O  0.91671521  0.43275055  0.94692291    -0.58500
O336        O  0.87198865  0.39145739  0.99124954    -0.56900
O337        O  0.88057015  0.44236279  0.90790280    -0.56900
O338        O  0.84554911  0.38648477  0.92251637    -0.56100
O339        O  0.19062447  0.10450772  0.59541046    -0.57300
C340        C  0.19171036  0.05509035  0.64665934     0.75300
O341        O  0.22021305  0.06353944  0.55852956    -0.58400
C342        C  0.20191355  0.11804756  0.57406870     0.75300
C343        C  0.25912518  0.11534484  0.62235690     0.77700
Cd344      Cd  0.21428018  0.08666854  0.59761926     1.37500
O345        O  0.18964046  0.07225289  0.64338030    -0.57300
O346        O  0.24144300  0.11124046  0.63661346    -0.56100
C347        C  0.20075739  0.05533330  0.54680040     0.77700
O348        O  0.25622299  0.10597075  0.59622052    -0.58500
O349        O  0.20397652  0.05262689  0.62714343    -0.56900
O350        O  0.21898222  0.11732195  0.56480816    -0.56900
O351        O  0.18838461  0.06235546  0.55780659    -0.56100
O352        O  0.48188994  0.22952347  0.73063362    -0.57300
C353        C  0.47750969  0.27881732  0.67332080     0.75300
O354        O  0.41941312  0.23537812  0.72604258    -0.58400
C355        C  0.47264843  0.21982146  0.75576839     0.75300
C356        C  0.47908251  0.28337103  0.77617336     0.77700
Cd357      Cd  0.46077075  0.25017807  0.72724075     1.37500
O358        O  0.48421282  0.26511736  0.67949401    -0.57300
O359        O  0.49106806  0.27916859  0.75834504    -0.56100
C360        C  0.41495392  0.21909263  0.70799183     0.77700
O361        O  0.45801973  0.27219607  0.77134211    -0.58500
O362        O  0.46349134  0.27904159  0.69198370    -0.56900
O363        O  0.45786679  0.22381580  0.76634482    -0.56900
O364        O  0.43151307  0.21719592  0.69944884    -0.56100
O365        O  0.20874748  0.72901355  0.81649317    -0.57300
C366        C  0.24403102  0.77896237  0.74387869     0.75300
O367        O  0.20249571  0.72063089  0.73693535    -0.58400
C368        C  0.18818202  0.71461781  0.82114203     0.75300
C369        C  0.18777172  0.77757582  0.79638206     0.77700
Cd370      Cd  0.20150358  0.74737755  0.77194797     1.37500
O371        O  0.24329723  0.76752242  0.76725005    -0.57300
O372        O  0.20481048  0.77719781  0.80652725    -0.56100
C373        C  0.18569038  0.71675102  0.72067203     0.77700
O374        O  0.17692986  0.76378816  0.77487759    -0.58500
O375        O  0.22536697  0.77623835  0.73477538    -0.56900
O376        O  0.17424377  0.71566692  0.80328633    -0.56900
O377        O  0.17560346  0.72727897  0.72813250    -0.56100
O378        O  0.08265635  0.89384425  0.88001427    -0.57300
C379        C  0.13494558  0.94804708  0.82611619     0.75300
O380        O  0.15215643  0.94491370  0.91783138    -0.58400
C381        C  0.08280830  0.88634289  0.90667215     0.75300
C382        C  0.14089134  0.88882155  0.86287053     0.77700
Cd383      Cd  0.12464689  0.91898556  0.87905936     1.37500
O384        O  0.11468765  0.93512355  0.83425791    -0.57300
O385        O  0.12694737  0.89103297  0.84647523    -0.56100
C386        C  0.13995948  0.95280148  0.92699826     0.77700
O387        O  0.14792904  0.90104024  0.88682330    -0.58500
O388        O  0.14976544  0.94710215  0.84219527    -0.56900
O389        O  0.10187335  0.89372038  0.91899417    -0.56900
O390        O  0.12114641  0.94514347  0.91373471    -0.56100
O391        O  0.54527980  0.39753103  0.48306623    -0.57300
C392        C  0.57943483  0.44320350  0.40882546     0.75300
O393        O  0.50735549  0.39094447  0.39803674    -0.58400
C394        C  0.52489413  0.38407133  0.49007547     0.75300
C395        C  0.52183686  0.44494769  0.45908191     0.77700
Cd396      Cd  0.53621382  0.41415466  0.43791402     1.37500
O397        O  0.57854121  0.43503949  0.43532004    -0.57300
O398        O  0.53721953  0.44301615  0.47204279    -0.56100
C399        C  0.51687402  0.37983661  0.39084569     0.77700
O400        O  0.51318509  0.43290338  0.43527558    -0.58500
O401        O  0.56074612  0.43855620  0.39720297    -0.56900
O402        O  0.51038574  0.38501064  0.47332825    -0.56900
O403        O  0.53475377  0.38482956  0.40526039    -0.56100
O404        O  0.42328377  0.56781928  0.56908158    -0.57300
C405        C  0.47812783  0.61657499  0.51722809     0.75300
O406        O  0.46597759  0.61360448  0.60323400    -0.58400
C407        C  0.42141985  0.55967218  0.59584104     0.75300
C408        C  0.47617479  0.55265883  0.54667392     0.77700
Cd409      Cd  0.46481059  0.58558288  0.56805164     1.37500
O410        O  0.45756267  0.60270665  0.52246758    -0.57300
O411        O  0.45799238  0.55179971  0.53929999    -0.56100
C412        C  0.48319976  0.61708804  0.61818979     0.77700
O413        O  0.48882779  0.56828392  0.56507083    -0.58500
O414        O  0.49207623  0.61590143  0.53542430    -0.56900
O415        O  0.43932998  0.56266524  0.60834159    -0.56900
O416        O  0.49218446  0.60563285  0.61016451    -0.56100
O417        O  0.88873855  0.07029758  0.15378911    -0.57300
C418        C  0.91979373  0.11909699  0.08225295     0.75300
O419        O  0.85041242  0.06315344  0.07127329    -0.58400
C420        C  0.86937263  0.06123539  0.16598191     0.75300
C421        C  0.86367617  0.11741143  0.12978402     0.77700
Cd422      Cd  0.87831873  0.08705791  0.11070106     1.37500
O423        O  0.91979821  0.11031596  0.10792181    -0.57300
O424        O  0.88224403  0.11946219  0.13798431    -0.56100
C425        C  0.86042425  0.05248047  0.06442755     0.77700
O426        O  0.85153671  0.10106404  0.11196636    -0.58500
O427        O  0.90075387  0.11304624  0.07050897    -0.56900
O428        O  0.85488904  0.06432145  0.15256194    -0.56900
O429        O  0.87828804  0.05785066  0.07910347    -0.56100
O430        O  0.75819063  0.23682878  0.24149284    -0.57300
C431        C  0.79966048  0.28004757  0.18091788     0.75300
O432        O  0.83135724  0.29080223  0.24557029    -0.58400
C433        C  0.75726004  0.22453900  0.26379480     0.75300
C434        C  0.81545737  0.22439436  0.20956966     0.77700
Cd435      Cd  0.79957595  0.25332909  0.23240960     1.37500
O436        O  0.79299655  0.28207430  0.20734652    -0.57300
O437        O  0.79838922  0.22426591  0.19863041    -0.56100
C438        C  0.82869746  0.28875887  0.27440845     0.77700
O439        O  0.82551971  0.23811299  0.23138926    -0.58500
O440        O  0.80443002  0.26461691  0.17798238    -0.56900
O441        O  0.77547062  0.22533462  0.27048956    -0.56900
O442        O  0.81397795  0.26961502  0.28395863    -0.56100
O443        O  0.81670044  0.93952386  0.35165269    -0.57300
C444        C  0.80655827  0.89769503  0.42594824     0.75300
O445        O  0.78901248  0.94911276  0.44068323    -0.58400
C446        C  0.81357955  0.95591429  0.34698808     0.75300
C447        C  0.74833236  0.89482982  0.37649140     0.77700
Cd448      Cd  0.79313274  0.92667437  0.39848739     1.37500
O449        O  0.81640557  0.90894995  0.40208722    -0.57300
O450        O  0.76585909  0.89473028  0.36806751    -0.56100
C451        C  0.80985590  0.95986033  0.44713941     0.77700
O452        O  0.75129463  0.91022165  0.39539714    -0.58500
O453        O  0.79028308  0.89953256  0.43605780    -0.56900
O454        O  0.80069719  0.95817011  0.36562089    -0.56900
O455        O  0.82219753  0.95467728  0.43171191    -0.56100
O456        O  0.52679105  0.77039663  0.27844169    -0.64500
C457        C  0.53138587  0.72070261  0.33379572     0.75300
O458        O  0.51831009  0.71836701  0.25092762    -0.58400
C459        C  0.53555359  0.77997854  0.25309807     0.75300
C460        C  0.59335012  0.77936842  0.30066720     0.77700
Cd461      Cd  0.54787146  0.74928247  0.28038931     1.37500
O462        O  0.54662833  0.72153800  0.31653749    -0.57300
O463        O  0.57630600  0.77662808  0.31546218    -0.56100
C464        C  0.53095600  0.71445499  0.23402232     0.77700
O465        O  0.58950476  0.76818138  0.27588080    -0.58500
O466        O  0.52342628  0.73312054  0.32616351    -0.56900
O467        O  0.54994555  0.77571305  0.24180117    -0.56900
O468        O  0.55193461  0.72693372  0.23837815    -0.56100
C469        C  0.70136373  0.84285864  0.33692227    -0.27100
C470        C  0.68265508  0.84530152  0.34254263     0.02500
C471        C  0.68559602  0.86419246  0.35930377     0.30600
C472        C  0.70694886  0.88015652  0.37032827    -0.18900
C473        C  0.72574884  0.87773231  0.36475210    -0.28300
C474        C  0.72268372  0.85874369  0.34789965     0.44600
C475        C  0.66005908  0.82776641  0.33159961     0.05800
O476        O  0.66769951  0.86725376  0.36495203    -0.56800
H477        H  0.70879940  0.89453738  0.38311579     0.18800
O478        O  0.74035628  0.85534932  0.34214721    -0.63500
H479        H  0.69936763  0.82829802  0.32445395     0.17200
C480        C  0.65589447  0.82161883  0.30025575     0.29500
C481        C  0.63423240  0.80543205  0.29052035    -0.24400
C482        C  0.61645110  0.79515718  0.31168202    -0.23700
C483        C  0.62083263  0.80084171  0.34316923     0.40900
C484        C  0.64246732  0.81694802  0.35285966    -0.26100
O485        O  0.67260722  0.83217582  0.27878046    -0.58000
H486        H  0.63121682  0.80138455  0.26622346     0.16500
O487        O  0.60423836  0.79028196  0.36480897    -0.59500
H488        H  0.64552496  0.82103734  0.37714482     0.15000
H489        H  0.74062746  0.84639673  0.35980581     0.46900
H490        H  0.67750231  0.82124086  0.27361403     0.42200
H491        H  0.59909242  0.80105170  0.36970619     0.45700
H492        H  0.66572682  0.87386760  0.34578602     0.37200
C493        C  0.83878846  0.02966158  0.23776758    -0.27100
C494        C  0.85015974  0.01815060  0.24525488     0.02500
C495        C  0.86848623  0.02146931  0.22675781     0.30600
C496        C  0.87497856  0.03594188  0.20137537    -0.18900
C497        C  0.86349578  0.04735019  0.19404857    -0.28300
C498        C  0.84548331  0.04435397  0.21282072     0.44600
C499        C  0.84244163  0.00269665  0.27217142     0.05800
O500        O  0.88015701  0.01065254  0.23314221    -0.56800
H501        H  0.88879941  0.03796073  0.18710687     0.18800
O502        O  0.83466313  0.05619231  0.20751440    -0.63500
H503        H  0.82436131  0.02707465  0.25105585     0.17200
C504        C  0.83680101  0.00905449  0.30023963     0.29500
C505        C  0.82761716  0.99362704  0.32433188    -0.24400
C506        C  0.82438684  0.97190151  0.32144061    -0.23700
C507        C  0.83117287  0.96588747  0.29414971     0.40900
C508        C  0.83962798  0.98104227  0.26954492    -0.26100
O509        O  0.84093094  0.03057244  0.30470450    -0.58000
H510        H  0.82315171  0.99880089  0.34552606     0.16500
O511        O  0.82861716  0.94491461  0.29068474    -0.59500
H512        H  0.84347789  0.97559711  0.24812112     0.15000
H513        H  0.82038612  0.04545593  0.19716168     0.46900
H514        H  0.82595914  0.02922631  0.30709576     0.42200
H515        H  0.84331153  0.94666670  0.29674788     0.45700
H516        H  0.89123511  0.01996808  0.24914474     0.37200
C517        C  0.86535165  0.16887578  0.16445253    -0.27100
C518        C  0.84254576  0.16245728  0.16443648     0.02500
C519        C  0.82667794  0.14129925  0.15234780     0.30600
C520        C  0.83375669  0.12691073  0.14053161    -0.18900
C521        C  0.85658929  0.13321134  0.14096459    -0.28300
C522        C  0.87242552  0.15443689  0.15305910     0.44600
C523        C  0.83566237  0.17828492  0.17629976     0.05800
O524        O  0.80421064  0.13446576  0.15224440    -0.56800
H525        H  0.82130447  0.11062856  0.13155932     0.18800
O526        O  0.89497236  0.16160017  0.15289255    -0.63500
H527        H  0.87779359  0.18529227  0.17304638     0.17200
C528        C  0.84126399  0.18711538  0.20638760     0.29500
C529        C  0.83491828  0.20241290  0.21684777    -0.24400
C530        C  0.82294077  0.20907702  0.19763477    -0.23700
C531        C  0.81766708  0.20045098  0.16735636     0.40900
C532        C  0.82396555  0.18515475  0.15697746    -0.26100
O533        O  0.85205575  0.18011660  0.22611870    -0.58000
H534        H  0.83896686  0.20870087  0.24025267     0.16500
O535        O  0.80652919  0.20699202  0.14756652    -0.59500
H536        H  0.81993115  0.17882065  0.13358670     0.15000
H537        H  0.89841331  0.15881755  0.17404302     0.46900
H538        H  0.86782143  0.19268011  0.22698079     0.42200
H539        H  0.81846644  0.22070717  0.13739206     0.45700
H540        H  0.79844862  0.12696024  0.17236754     0.37200
C541        C  0.49880698  0.68966934  0.40561218    -0.27100
C542        C  0.51013603  0.67838436  0.41439933     0.02500
C543        C  0.52831862  0.68091408  0.39645515     0.30600
C544        C  0.53490536  0.69461202  0.37024963    -0.18900
C545        C  0.52367692  0.70608085  0.36148371    -0.28300
C546        C  0.50534701  0.70332806  0.37940466     0.44600
C547        C  0.50199805  0.66311822  0.44135919     0.05800
O548        O  0.53894854  0.66912582  0.40342712    -0.56800
H549        H  0.54885601  0.69617428  0.35671464     0.18800
O550        O  0.49361350  0.71382159  0.37156424    -0.63500
H551        H  0.48469394  0.68776916  0.41909194     0.17200
C552        C  0.51636012  0.66557329  0.46599119     0.29500
C553        C  0.50830633  0.65036450  0.49050349    -0.24400
C554        C  0.48580940  0.63275262  0.49132964    -0.23700
C555        C  0.47128736  0.63077075  0.46712180     0.40900
C556        C  0.47944954  0.64581169  0.44240089    -0.26100
O557        O  0.53824831  0.68283638  0.46646505    -0.58000
H558        H  0.51974265  0.65246001  0.50902216     0.16500
O559        O  0.44932038  0.61370674  0.46670884    -0.59500
H560        H  0.46817821  0.64372241  0.42365451     0.15000
H561        H  0.48098546  0.70279702  0.35857930     0.46900
H562        H  0.53768624  0.69583561  0.47536248     0.42200
H563        H  0.44066445  0.62027663  0.47577517     0.45700
H564        H  0.55428118  0.68055669  0.41023532     0.37200
C565        C  0.51032658  0.52660200  0.51854596    -0.27100
C566        C  0.49348941  0.50568665  0.50725815     0.02500
C567        C  0.47084417  0.50014818  0.50951792     0.30600
C568        C  0.46544185  0.51553704  0.52257698    -0.18900
C569        C  0.48232153  0.53646043  0.53386624    -0.28300
C570        C  0.50493748  0.54189472  0.53171688     0.44600
C571        C  0.49997906  0.48960889  0.49462733     0.05800
O572        O  0.45386972  0.47929161  0.50065921    -0.56800
H573        H  0.44793043  0.51092543  0.52426409     0.18800
O574        O  0.52197760  0.56221243  0.54208224    -0.63500
H575        H  0.52783208  0.53116430  0.51700827     0.17200
C576        C  0.49320792  0.47988902  0.46508884     0.29500
C577        C  0.50019766  0.46521915  0.45385197    -0.24400
C578        C  0.51435266  0.46031947  0.47141490    -0.23700
C579        C  0.52113996  0.47017892  0.50092279     0.40900
C580        C  0.51398922  0.48461207  0.51216902    -0.26100
O581        O  0.48023103  0.48500360  0.44669407    -0.58000
H582        H  0.49482760  0.45797252  0.43109699     0.16500
O583        O  0.53482854  0.46591004  0.51911471    -0.59500
H584        H  0.51938705  0.49191353  0.53490260     0.15000
H585        H  0.52692035  0.57214400  0.52378634     0.46900
H586        H  0.49098855  0.49912542  0.43609486     0.42200
H587        H  0.52448195  0.45259016  0.53151584     0.45700
H588        H  0.44663851  0.48193291  0.48267543     0.37200
C589        C  0.18853903  0.82700427  0.83749730    -0.27100
C590        C  0.16701542  0.82328302  0.83055354     0.02500
C591        C  0.15219153  0.80406141  0.81336870     0.30600
C592        C  0.15917430  0.78938577  0.80252623    -0.18900
C593        C  0.18082821  0.79325585  0.80891296    -0.28300
C594        C  0.19550740  0.81220486  0.82686304     0.44600
C595        C  0.16062448  0.84020711  0.83941840     0.05800
O596        O  0.13082377  0.79953909  0.80684612    -0.56800
H597        H  0.14751520  0.77485904  0.78909804     0.18800
O598        O  0.21684973  0.81673441  0.83363733    -0.63500
H599        H  0.20025828  0.84182127  0.85038544     0.17200
C600        C  0.16193936  0.84748413  0.87012559     0.29500
C601        C  0.15581840  0.86358870  0.87747843    -0.24400
C602        C  0.14823376  0.87257152  0.85453890    -0.23700
C603        C  0.14709543  0.86532744  0.82381931     0.40900
C604        C  0.15330099  0.84938429  0.81652235    -0.26100
O605        O  0.16813570  0.83816861  0.89324744    -0.58000
H606        H  0.15654720  0.86868992  0.90128386     0.16500
O607        O  0.14002192  0.87377526  0.80061743    -0.59500
H608        H  0.15251965  0.84424912  0.79271806     0.15000
H609        H  0.22651569  0.82711869  0.81725593     0.46900
H610        H  0.18375734  0.84971382  0.89863794     0.42200
H611        H  0.15391007  0.88680960  0.79246077     0.45700
H612        H  0.12153356  0.79047042  0.82445396     0.37200
C613        C  0.48942555  0.33740310  0.54705478    -0.27100
C614        C  0.50581777  0.33809101  0.56691870     0.02500
C615        C  0.52862620  0.35365110  0.56095682     0.30600
C616        C  0.53465936  0.36837204  0.53582513    -0.18900
C617        C  0.51820254  0.36803661  0.51629620    -0.28300
C618        C  0.49536227  0.35221683  0.52217416     0.44600
C619        C  0.49879503  0.32294904  0.59419683     0.05800
O620        O  0.54516085  0.35488026  0.57984005    -0.56800
H621        H  0.55228594  0.38026609  0.53185661     0.18800
O622        O  0.47861450  0.35077234  0.50352521    -0.63500
H623        H  0.47183313  0.32529896  0.55088402     0.17200
C624        C  0.48307719  0.32253052  0.61539039     0.29500
C625        C  0.47657271  0.30824807  0.64094304    -0.24400
C626        C  0.48524917  0.29386230  0.64591997    -0.23700
C627        C  0.50092397  0.29419770  0.62457874     0.40900
C628        C  0.50763515  0.30872016  0.59911472    -0.26100
O629        O  0.47464491  0.33671853  0.61198399    -0.58000
H630        H  0.46461469  0.30850275  0.65695470     0.16500
O631        O  0.51000965  0.28063672  0.62846842    -0.59500
H632        H  0.51961095  0.30867610  0.58293441     0.15000
H633        H  0.47313834  0.35997816  0.51390048     0.46900
H634        H  0.45891709  0.32703954  0.60493397     0.42200
H635        H  0.50023963  0.26686715  0.61635766     0.45700
H636        H  0.54610168  0.36473148  0.59718022     0.37200
C637        C  0.13302450  0.98236547  0.75834182    -0.27100
C638        C  0.15542207  0.99297893  0.74831302     0.02500
C639        C  0.17095835  0.98918317  0.76420631     0.30600
C640        C  0.16398768  0.97466074  0.78945478    -0.18900
C641        C  0.14145055  0.96349140  0.79929766    -0.28300
C642        C  0.12592582  0.96758186  0.78351387     0.44600
C643        C  0.16269814  0.00803144  0.72125591     0.05800
O644        O  0.19319212  0.00022275  0.75579596    -0.56800
H645        H  0.17636103  0.97210052  0.80128694     0.18800
O646        O  0.10396398  0.95772126  0.79288972    -0.63500
H647        H  0.12097748  0.98537996  0.74641702     0.17200
C648        C  0.16985271  0.00219202  0.69419347     0.29500
C649        C  0.17888881  0.01752196  0.66993715    -0.24400
C650        C  0.18073221  0.03877625  0.67200150    -0.23700
C651        C  0.17285256  0.04430745  0.69878220     0.40900
C652        C  0.16382561  0.02891579  0.72309491    -0.26100
O653        O  0.16845932  0.98166583  0.69149523    -0.58000
H654        H  0.18463683  0.01279451  0.64952317     0.16500
O655        O  0.17449601  0.06491886  0.70188343    -0.59500
H656        H  0.15838411  0.03358208  0.74386032     0.15000
H657        H  0.09562882  0.94448278  0.77921566     0.46900
H658        H  0.15314518  0.97139896  0.68341068     0.42200
H659        H  0.18942334  0.07473347  0.71140367     0.45700
H660        H  0.19526925  0.98909511  0.74384836     0.37200
C661        C  0.36419794  0.16796463  0.67283337    -0.27100
C662        C  0.34818231  0.17486817  0.67247610     0.02500
C663        C  0.35398879  0.19607527  0.68484344     0.30600
C664        C  0.37554462  0.21005689  0.69704099    -0.18900
C665        C  0.39176760  0.20336694  0.69684456    -0.28300
C666        C  0.38576365  0.18193485  0.68490669     0.44600
C667        C  0.32544360  0.15973089  0.65941764     0.05800
O668        O  0.33883548  0.20346813  0.68459611    -0.56800
H669        H  0.37974067  0.22642931  0.70598098     0.18800
O670        O  0.40079607  0.17438772  0.68497841    -0.63500
H671        H  0.35990163  0.15155815  0.66390703     0.17200
C672        C  0.32267064  0.15193043  0.62879204     0.29500
C673        C  0.30106933  0.13748382  0.61705056    -0.24400
C674        C  0.28187397  0.13043395  0.63549558    -0.23700
C675        C  0.28474622  0.13826375  0.66625194     0.40900
C676        C  0.30634227  0.15272074  0.67789836    -0.26100
O677        O  0.34094488  0.15905259  0.60980405    -0.58000
H678        H  0.29936822  0.13194404  0.59331674     0.16500
O679        O  0.26664099  0.13148064  0.68546787    -0.59500
H680        H  0.30819813  0.15832540  0.70162530     0.15000
H681        H  0.39769659  0.16562860  0.70425861     0.46900
H682        H  0.34382093  0.14632279  0.60876774     0.42200
H683        H  0.26306483  0.14374699  0.68481527     0.45700
H684        H  0.34148103  0.21162344  0.66485063     0.37200
C685        C  0.81905708  0.35903402  0.07514344    -0.27100
C686        C  0.82783959  0.34513404  0.08281656     0.02500
C687        C  0.84660759  0.34753154  0.06653053     0.30600
C688        C  0.85583553  0.36298772  0.04248177    -0.18900
C689        C  0.84675934  0.37650639  0.03396255    -0.28300
C690        C  0.82828665  0.37455384  0.05082754     0.44600
C691        C  0.81755232  0.32802056  0.10760887     0.05800
O692        O  0.85606035  0.33472158  0.07387818    -0.56800
H693        H  0.87009838  0.36415364  0.03020812     0.18800
O694        O  0.81904144  0.38757841  0.04375060    -0.63500
H695        H  0.80471310  0.35751241  0.08761379     0.17200
C696        C  0.81666276  0.33424753  0.13829388     0.29500
C697        C  0.80930824  0.31810800  0.16180187    -0.24400
C698        C  0.80318274  0.29570338  0.15527537    -0.23700
C699        C  0.80312149  0.28932310  0.12434884     0.40900
C700        C  0.81020726  0.30538300  0.10088697    -0.26100
O701        O  0.82406193  0.35625939  0.14577836    -0.58000
H702        H  0.80966646  0.32343330  0.18541198     0.16500
O703        O  0.79684914  0.26756790  0.11683760    -0.59500
H704        H  0.81060114  0.30026929  0.07736577     0.15000
H705        H  0.80667445  0.37841849  0.02914201     0.46900
H706        H  0.84051437  0.36318972  0.14884502     0.42200
H707        H  0.78018732  0.25943889  0.11622770     0.45700
H708        H  0.86660998  0.34286996  0.09100009     0.37200
C709        C  0.16626005  0.63849830  0.93156782    -0.27100
C710        C  0.15880375  0.65364740  0.92509774     0.02500
C711        C  0.14419046  0.65560501  0.94590715     0.30600
C712        C  0.13731357  0.64264591  0.97273492    -0.18900
C713        C  0.14486584  0.62756801  0.97954275    -0.28300
C714        C  0.15929901  0.62540219  0.95841344     0.44600
C715        C  0.16671457  0.66789238  0.89711653     0.05800
O716        O  0.13679415  0.67043299  0.94044680    -0.56800
H717        H  0.12620602  0.64465610  0.98845910     0.18800
O718        O  0.16679768  0.61065066  0.96373515    -0.63500
H719        H  0.17745069  0.63676806  0.91567165     0.17200
C720        C  0.18944811  0.68448359  0.89366962     0.29500
C721        C  0.19627909  0.69927023  0.86858723    -0.24400
C722        C  0.18071205  0.69772923  0.84637738    -0.23700
C723        C  0.15801104  0.68041476  0.84929510     0.40900
C724        C  0.15122221  0.66577653  0.87454185    -0.26100
O725        O  0.20490250  0.68718177  0.91564608    -0.58000
H726        H  0.21376294  0.71231826  0.86694485     0.16500
O727        O  0.14231291  0.67747039  0.82754103    -0.59500
H728        H  0.13370234  0.65288454  0.87673846     0.15000
H729        H  0.15539652  0.59630106  0.95411362     0.46900
H730        H  0.21196801  0.67864605  0.90781465     0.42200
H731        H  0.13400233  0.68445989  0.83647645     0.45700
H732        H  0.14867522  0.68501406  0.94891884     0.37200
C733        C  0.01356057  0.52326248  0.03426097    -0.27100
C734        C  0.01121606  0.50538405  0.01584750     0.02500
C735        C  0.03043403  0.50412195  0.00834225     0.30600
C736        C  0.05154621  0.52055661  0.01917399    -0.18900
C737        C  0.05397691  0.53846674  0.03773305    -0.28300
C738        C  0.03465804  0.53965392  0.04530070     0.44600
C739        C  0.98866016  0.48840003  0.00433364     0.05800
O740        O  0.02877272  0.48686154  0.99049572    -0.56800
H741        H  0.06608120  0.51921128  0.01299632     0.18800
O742        O  0.03621300  0.55709124  0.06260458    -0.63500
H743        H  0.99897076  0.52468779  0.03978798     0.17200
C744        C  0.97064242  0.47672839  0.02489344     0.29500
C745        C  0.94899208  0.46236132  0.01355244    -0.24400
C746        C  0.94499287  0.45903814  0.98175560    -0.23700
C747        C  0.96322114  0.46971239  0.96120744     0.40900
C748        C  0.98483126  0.48449927  0.97253781    -0.26100
O749        O  0.97419094  0.47888341  0.05612317    -0.58000
H750        H  0.93524783  0.45380667  0.02970831     0.16500
O751        O  0.95988394  0.46691303  0.92999869    -0.59500
H752        H  0.99852399  0.49339389  0.95641369     0.15000
H753        H  0.03320318  0.55146396  0.08407460     0.46900
H754        H  0.96798372  0.48834521  0.06330359     0.42200
H755        H  0.96324350  0.45491770  0.92443637     0.45700
H756        H  0.02481646  0.47432017  0.00500337     0.37200
C757        C  0.52363323  0.66245379  0.67328578    -0.27100
C758        C  0.51003697  0.67060260  0.68489061     0.02500
C759        C  0.48719381  0.65979041  0.67659400     0.30600
C760        C  0.47854284  0.64183035  0.65573467    -0.18900
C761        C  0.49230459  0.63415674  0.64308435    -0.28300
C762        C  0.51489953  0.64425620  0.65269546     0.44600
C763        C  0.52023771  0.69177188  0.70285904     0.05800
O764        O  0.47364786  0.66777487  0.68689368    -0.56800
H765        H  0.46111019  0.63430543  0.64877449     0.18800
O766        O  0.52884004  0.63712712  0.64121449    -0.63500
H767        H  0.54124889  0.67066566  0.67954061     0.17200
C768        C  0.51277389  0.69263332  0.73273030     0.29500
C769        C  0.52052439  0.71339074  0.74740975    -0.24400
C770        C  0.53592919  0.73354373  0.73277528    -0.23700
C771        C  0.54449574  0.73245463  0.70359921     0.40900
C772        C  0.53653708  0.71169307  0.68888358    -0.26100
O773        O  0.49742239  0.67332945  0.74739923    -0.58000
H774        H  0.51396515  0.71371642  0.76998181     0.16500
O775        O  0.55970168  0.75158693  0.68843141    -0.59500
H776        H  0.54248025  0.71123070  0.66590939     0.15000
H777        H  0.53620797  0.64676817  0.62304927     0.46900
H778        H  0.50650020  0.66794800  0.75820458     0.42200
H779        H  0.57463573  0.75360160  0.69359724     0.45700
H780        H  0.46382194  0.65688508  0.70272832     0.37200
C781        C  0.85691892  0.00944252  0.00650565    -0.27100
C782        C  0.83399274  0.99802264  0.99913837     0.02500
C783        C  0.81995391  0.00527279  0.01212599     0.30600
C784        C  0.82885247  0.02346421  0.03268820    -0.18900
C785        C  0.85168981  0.03445337  0.04089041    -0.28300
C786        C  0.86580795  0.02747406  0.02719778     0.44600
C787        C  0.82477299  0.97743761  0.98004881     0.05800
O788        O  0.79743720  0.99436040  0.00539759    -0.56800
H789        H  0.81772173  0.02854786  0.04291094     0.18800
O790        O  0.88824847  0.03783204  0.03430033    -0.63500
H791        H  0.86786018  0.00388069  0.99691837     0.17200
C792        C  0.83332461  0.97775594  0.95047445     0.29500
C793        C  0.82642480  0.95757560  0.93459270    -0.24400
C794        C  0.81090938  0.93684098  0.94780153    -0.23700
C795        C  0.80176163  0.93672236  0.97702091     0.40900
C796        C  0.80866779  0.95690020  0.99277751    -0.26100
O797        O  0.84876374  0.99767933  0.93718147    -0.58000
H798        H  0.83353444  0.95816546  0.91210203     0.16500
O799        O  0.78638134  0.91698085  0.99079601    -0.59500
H800        H  0.80206526  0.95642096  0.01561565     0.15000
H801        H  0.89582928  0.04982944  0.01867773     0.46900
H802        H  0.83974222  0.00343183  0.92709825     0.42200
H803        H  0.79525412  0.91307615  0.00459228     0.45700
H804        H  0.79616708  0.00182867  0.98665681     0.37200
C805        C  0.68560490  0.83256547  0.86872537    -0.27100
C806        C  0.68427605  0.84272066  0.84140518     0.02500
C807        C  0.70426832  0.85903018  0.82725671     0.30600
C808        C  0.72507501  0.86482251  0.84027886    -0.18900
C809        C  0.72647991  0.85439436  0.86733128    -0.28300
C810        C  0.70642813  0.83821039  0.88165531     0.44600
C811        C  0.66196721  0.83594645  0.82777886     0.05800
O812        O  0.70368822  0.86913791  0.80038124    -0.56800
H813        H  0.74019334  0.87733132  0.82878415     0.18800
O814        O  0.70690084  0.82758343  0.90805532    -0.63500
H815        H  0.67038994  0.82023415  0.88021010     0.17200
C816        C  0.64624043  0.81312137  0.82236818     0.29500
C817        C  0.62493806  0.80688871  0.81079073    -0.24400
C818        C  0.61896972  0.82312419  0.80399750    -0.23700
C819        C  0.63484960  0.84600970  0.80856891     0.40900
C820        C  0.65610793  0.85226656  0.82065676    -0.26100
O821        O  0.65185013  0.79686275  0.82730912    -0.58000
H822        H  0.61305196  0.78922328  0.80689607     0.16500
O823        O  0.62935317  0.86225401  0.80296359    -0.59500
H824        H  0.66789918  0.86988327  0.82501932     0.15000
H825        H  0.70581125  0.83658731  0.92513978     0.46900
H826        H  0.64328663  0.78861003  0.84585340     0.42200
H827        H  0.63502996  0.86776436  0.78193494     0.45700
H828        H  0.70474885  0.85983108  0.78370975     0.37200
C829        C  0.48415126  0.14453608  0.83708455    -0.27100
C830        C  0.50002602  0.16510144  0.82381095     0.02500
C831        C  0.52287326  0.17432902  0.83138661     0.30600
C832        C  0.52939582  0.16347944  0.85268519    -0.18900
C833        C  0.51347034  0.14342390  0.86705862    -0.28300
C834        C  0.49069447  0.13363668  0.85841428     0.44600
C835        C  0.49231396  0.17796522  0.80501145     0.05800
O836        O  0.53869014  0.19497537  0.82030816    -0.56800
H837        H  0.54699766  0.17141352  0.85891444     0.18800
O838        O  0.47450750  0.11422429  0.87198451    -0.63500
H839        H  0.46648250  0.13724561  0.83158064     0.17200
C840        C  0.50119074  0.18634041  0.77556795     0.29500
C841        C  0.49459237  0.19979105  0.75962173    -0.24400
C842        C  0.47889875  0.20489958  0.77243026    -0.23700
C843        C  0.46971097  0.19604404  0.80169268     0.40900
C844        C  0.47636433  0.18270353  0.81752875    -0.26100
O845        O  0.51630015  0.18147417  0.76215158    -0.58000
H846        H  0.50182265  0.20625494  0.73718868     0.16500
O847        O  0.45430264  0.20040821  0.81531023    -0.59500
H848        H  0.46941349  0.17648826  0.84017725     0.15000
H849        H  0.47197420  0.10202948  0.85743385     0.46900
H850        H  0.50703401  0.16732749  0.75051781     0.42200
H851        H  0.46324819  0.21371952  0.82865899     0.45700
H852        H  0.54829417  0.19201054  0.80626736     0.37200
C853        C  0.50872424  0.81514188  0.23169003    -0.27100
C854        C  0.51632603  0.82114696  0.20122823     0.02500
C855        C  0.53068307  0.81418213  0.18865272     0.30600
C856        C  0.53714884  0.80141486  0.20621726    -0.18900
C857        C  0.52925766  0.79489699  0.23647716    -0.28300
C858        C  0.51510109  0.80215188  0.24932967     0.44600
C859        C  0.50805954  0.83314730  0.18160525     0.05800
O860        O  0.53788028  0.81908953  0.15871461    -0.56800
H861        H  0.54793846  0.79604751  0.19561291     0.18800
O862        O  0.50703775  0.79633202  0.27876514    -0.63500
H863        H  0.49761117  0.82033114  0.24168750     0.17200
C864        C  0.48505426  0.82325330  0.17468868     0.29500
C865        C  0.47780159  0.83289219  0.15246129    -0.24400
C866        C  0.49314761  0.85265811  0.13692897    -0.23700
C867        C  0.51609953  0.86320022  0.14500005     0.40900
C868        C  0.52337919  0.85339282  0.16709665    -0.26100
O869        O  0.46969683  0.80326362  0.18791212    -0.58000
H870        H  0.46006262  0.82450351  0.14688257     0.16500
O871        O  0.53166209  0.88265316  0.13082215    -0.59500
H872        H  0.54115254  0.86125943  0.17227378     0.15000
H873        H  0.51826573  0.80863688  0.29198368     0.46900
H874        H  0.46289192  0.80742775  0.20498875     0.42200
H875        H  0.53738311  0.87773575  0.11324775     0.45700
H876        H  0.52587189  0.80683388  0.14626212     0.37200
C877        C  0.50898317  0.85394783  0.93888145    -0.27100
C878        C  0.49305557  0.83408681  0.92422857     0.02500
C879        C  0.47123416  0.82188431  0.93667467     0.30600
C880        C  0.46571354  0.82953331  0.96353657    -0.18900
C881        C  0.48179621  0.84931268  0.97850527    -0.28300
C882        C  0.50360199  0.86154568  0.96571554     0.44600
C883        C  0.49985140  0.82610884  0.89660362     0.05800
O884        O  0.45519347  0.80249435  0.92273452    -0.56800
H885        H  0.44886347  0.81986690  0.97277997     0.18800
O886        O  0.51975254  0.88127384  0.97883028    -0.63500
H887        H  0.52589051  0.86347092  0.92975643     0.17200
C888        C  0.50923776  0.84006672  0.87075225     0.29500
C889        C  0.51771598  0.83323632  0.84626949    -0.24400
C890        C  0.51720190  0.81255001  0.84702127    -0.23700
C891        C  0.50703057  0.79821255  0.87243582     0.40900
C892        C  0.49854599  0.80508209  0.89696974    -0.26100
O893        O  0.50987915  0.86029009  0.86905255    -0.58000
H894        H  0.52503576  0.84440566  0.82679320     0.16500
O895        O  0.50622312  0.77793876  0.87429773    -0.59500
H896        H  0.49156471  0.79423870  0.91682303     0.15000
H897        H  0.52905617  0.87709461  0.99150034     0.46900
H898        H  0.52583900  0.87190631  0.87245999     0.42200
H899        H  0.49119705  0.76674575  0.86623710     0.45700
H900        H  0.44797285  0.80742217  0.90729338     0.37200
C901        C  0.50472603  0.02578801  0.01995362    -0.27100
C902        C  0.49946109  0.00831175  0.99882790     0.02500
C903        C  0.49998161  0.01285904  0.96704435     0.30600
C904        C  0.50573841  0.03444476  0.95700514    -0.18900
C905        C  0.51179435  0.05207579  0.97814024    -0.28300
C906        C  0.51128291  0.04754831  0.00989480     0.44600
C907        C  0.49380149  0.98559481  0.01013148     0.05800
O908        O  0.49551072  0.99650809  0.94549630    -0.56800
H909        H  0.50624645  0.03756963  0.93249687     0.18800
O910        O  0.51673698  0.06415733  0.03140742    -0.63500
H911        H  0.50387716  0.02262770  0.04446794     0.17200
C912        C  0.50728736  0.98294340  0.03226183     0.29500
C913        C  0.50189329  0.96140121  0.04206135    -0.24400
C914        C  0.48312235  0.94208890  0.03016546    -0.23700
C915        C  0.46959922  0.94476518  0.00803958     0.40900
C916        C  0.47484660  0.96630770  0.99854581    -0.26100
O917        O  0.52642563  0.00125116  0.04335032    -0.58000
H918        H  0.51264944  0.95986062  0.05887091     0.16500
O919        O  0.45105853  0.92650455  0.99565456    -0.59500
H920        H  0.46397887  0.96791371  0.98199840     0.15000
H921        H  0.53268338  0.06962340  0.03676492     0.46900
H922        H  0.52305133  0.00295378  0.06509082     0.42200
H923        H  0.45642004  0.92309728  0.97626188     0.45700
H924        H  0.51013175  0.99737762  0.94164130     0.37200
C925        C  0.16871712  0.53293454  0.12085509    -0.27100
C926        C  0.15902024  0.52416631  0.14961917     0.02500
C927        C  0.14186455  0.52771591  0.16074577     0.30600
C928        C  0.13466859  0.53994487  0.14316601    -0.18900
C929        C  0.14434734  0.54883991  0.11429231    -0.28300
C930        C  0.16156286  0.54519315  0.10322202     0.44600
C931        C  0.16807471  0.51276195  0.16872457     0.05800
O932        O  0.13294531  0.52039128  0.18952148    -0.56800
H933        H  0.12164431  0.54271800  0.15246585     0.18800
O934        O  0.17160389  0.55355669  0.07531020    -0.63500
H935        H  0.18208864  0.53045279  0.11218598     0.17200
C936        C  0.15469752  0.49012656  0.17757479     0.29500
C937        C  0.16371926  0.48011531  0.19644959    -0.24400
C938        C  0.18609701  0.49244510  0.20678861    -0.23700
C939        C  0.19948200  0.51509227  0.19744549     0.40900
C940        C  0.19047630  0.52492657  0.17843355    -0.26100
O941        O  0.13278866  0.47769118  0.16800721    -0.58000
H942        H  0.15308695  0.46275957  0.20328940     0.16500
O943        O  0.22142797  0.52789773  0.20673990    -0.59500
H944        H  0.20094548  0.54234563  0.17171381     0.15000
H945        H  0.18543922  0.56796501  0.08014801     0.46900
H946        H  0.13353109  0.47212214  0.14719292     0.42200
H947        H  0.22094385  0.53606573  0.22534221     0.45700
H948        H  0.11786711  0.50710254  0.18593585     0.37200
C949        C  0.17034093  0.14858795  0.55346449    -0.27100
C950        C  0.18237896  0.16084327  0.52738292     0.02500
C951        C  0.20150960  0.15980727  0.51821612     0.30600
C952        C  0.20804045  0.14658870  0.53453258    -0.18900
C953        C  0.19547716  0.13354175  0.55970682    -0.28300
C954        C  0.17655346  0.13481419  0.56934591     0.44600
C955        C  0.17414317  0.17328671  0.50842364     0.05800
O956        O  0.21349149  0.17089160  0.49248127    -0.56800
H957        H  0.22261732  0.14592722  0.52654776     0.18800
O958        O  0.16353061  0.12212011  0.59348247    -0.63500
H959        H  0.15581228  0.14937286  0.56131732     0.17200
C960        C  0.15152756  0.16288202  0.49885390     0.29500
C961        C  0.14486142  0.17344012  0.47732025    -0.24400
C962        C  0.16034485  0.19442532  0.46472218    -0.23700
C963        C  0.18266449  0.20547101  0.47562311     0.40900
C964        C  0.18932917  0.19497524  0.49742705    -0.26100
O965        O  0.13615077  0.14159921  0.50843210    -0.58000
H966        H  0.12753956  0.16463755  0.46961254     0.16500
O967        O  0.19842267  0.22590666  0.46397655    -0.59500
H968        H  0.20666865  0.20355926  0.50503736     0.15000
H969        H  0.16877747  0.13236688  0.61153580     0.46900
H970        H  0.12610604  0.14355843  0.52293466     0.42200
H971        H  0.19813196  0.23719741  0.47791289     0.45700
H972        H  0.20593184  0.16031754  0.47514085     0.37200
C973        C  0.18343872  0.36890610  0.34246614    -0.27100
C974        C  0.17353842  0.35102249  0.32137030     0.02500
C975        C  0.16927066  0.35538190  0.29112303     0.30600
C976        C  0.17543634  0.37737411  0.28232973    -0.18900
C977        C  0.18620024  0.39540191  0.30319164    -0.28300
C978        C  0.18985831  0.39084835  0.33364968     0.44600
C979        C  0.16784536  0.32805193  0.33142038     0.05800
O980        O  0.15958193  0.33839157  0.26976556    -0.56800
H981        H  0.17240621  0.38040082  0.25883410     0.18800
O982        O  0.19999268  0.40775495  0.35504384    -0.63500
H983        H  0.18625396  0.36587896  0.36605566     0.17200
C984        C  0.18370366  0.32441025  0.34705395     0.29500
C985        C  0.17775658  0.30283795  0.35744334    -0.24400
C986        C  0.15606770  0.28451167  0.35252813    -0.23700
C987        C  0.14022206  0.28816389  0.33679876     0.40900
C988        C  0.14617656  0.30971805  0.32641491    -0.26100
O989        O  0.20533267  0.34170534  0.35127247    -0.58000
H990        H  0.19026135  0.30045375  0.36922686     0.16500
O991        O  0.11870997  0.27088673  0.33182496    -0.59500
H992        H  0.13360511  0.31218875  0.31499542     0.15000
H993        H  0.18747498  0.40804138  0.36596018     0.46900
H994        H  0.20674675  0.34503801  0.37367592     0.42200
H995        H  0.11005735  0.27086614  0.35013012     0.45700
H996        H  0.17232942  0.33881017  0.25850351     0.37200
C997        C  0.18371172  0.67485541  0.66180440    -0.27100
C998        C  0.16268139  0.66719932  0.64811255     0.02500
C999        C  0.14961393  0.67672725  0.65720378     0.30600
C1000       C  0.15748297  0.69332128  0.68023527    -0.18900
C1001       C  0.17827733  0.70046960  0.69472352    -0.28300
C1002       C  0.19150044  0.69118361  0.68494947     0.44600
C1003       C  0.15381534  0.64758398  0.62708449     0.05800
O1004       O  0.12890345  0.66952079  0.64430933    -0.56800
H1005       H  0.14702293  0.70016057  0.68731097     0.18800
O1006       O  0.21204898  0.69776209  0.69797794    -0.63500
H1007       H  0.19379395  0.66742228  0.65547892     0.17200
C1008       C  0.16626624  0.64742560  0.60140922     0.29500
C1009       C  0.15953079  0.62736496  0.58523559    -0.24400
C1010       C  0.14066552  0.60717340  0.59471651    -0.23700
C1011       C  0.12755387  0.60768668  0.61943749     0.40900
C1012       C  0.13412387  0.62779585  0.63523189    -0.26100
O1013       O  0.18512644  0.66678531  0.59218262    -0.58000
H1014       H  0.16969895  0.62747100  0.56609296     0.16500
O1015       O  0.10849966  0.58857726  0.62879439    -0.59500
H1016       H  0.12443431  0.62762897  0.65503075     0.15000
H1017       H  0.20913402  0.68627076  0.71384081     0.46900
H1018       H  0.19799279  0.66491429  0.59810995     0.42200
H1019       H  0.11316694  0.58311273  0.64685626     0.45700
H1020       H  0.13199587  0.67770409  0.62452021     0.37200
C1021       C  0.20827221  0.50748384  0.40851458    -0.27100
C1022       C  0.19460387  0.51714198  0.40540381     0.02500
C1023       C  0.18684544  0.51839465  0.37588553     0.30600
C1024       C  0.19185469  0.50913461  0.35040557    -0.18900
C1025       C  0.20484510  0.49873597  0.35366354    -0.28300
C1026       C  0.21351083  0.49844501  0.38293798     0.44600
C1027       C  0.18628639  0.52338394  0.43323813     0.05800
O1028       O  0.17357033  0.52780947  0.37186676    -0.56800
H1029       H  0.18520396  0.50974770  0.32805609     0.18800
O1030       O  0.22577850  0.48798099  0.38723831    -0.63500
H1031       H  0.21433722  0.50633313  0.43105865     0.17200
C1032       C  0.17395475  0.50710439  0.45577558     0.29500
C1033       C  0.16376853  0.51210343  0.48000775    -0.24400
C1034       C  0.16560527  0.53333050  0.48252137    -0.23700
C1035       C  0.17894689  0.55005672  0.46083441     0.40900
C1036       C  0.18895046  0.54493132  0.43626985    -0.26100
O1037       O  0.17101549  0.48589546  0.45371583    -0.58000
H1038       H  0.15394826  0.49904506  0.49656179     0.16500
O1039       O  0.18160820  0.57115701  0.46262096    -0.59500
H1040       H  0.19851048  0.55770186  0.41924046     0.15000
H1041       H  0.24170340  0.50011067  0.38583427     0.46900
H1042       H  0.15794179  0.47748883  0.43984287     0.42200
H1043       H  0.19531438  0.58004016  0.47526852     0.45700
H1044       H  0.15798319  0.51543447  0.37551183     0.37200
C1045       C  0.88333977  0.38347254  0.35576112    -0.27100
C1046       C  0.86165835  0.36465014  0.35619597     0.02500
C1047       C  0.84494394  0.36507935  0.37442731     0.30600
C1048       C  0.84987787  0.38445664  0.39122262    -0.18900
C1049       C  0.87130709  0.40373114  0.38963980    -0.28300
C1050       C  0.88826560  0.40288486  0.37232584     0.44600
C1051       C  0.85604673  0.34551085  0.33532595     0.05800
O1052       O  0.82348049  0.34701214  0.37484469    -0.56800
H1053       H  0.83661991  0.38473673  0.40434678     0.18800
O1054       O  0.90960677  0.42109244  0.37083423    -0.63500
H1055       H  0.89635127  0.38328401  0.34189756     0.17200
C1056       C  0.85673884  0.34848209  0.30323703     0.29500
C1057       C  0.84916034  0.32994453  0.28357216    -0.24400
C1058       C  0.84070175  0.30819925  0.29544120    -0.23700
C1059       C  0.84123842  0.30542486  0.32756298     0.40900
C1060       C  0.84874342  0.32401901  0.34727441    -0.26100
O1061       O  0.86312390  0.36919086  0.29099974    -0.58000
H1062       H  0.84872423  0.33248712  0.25902605     0.16500
O1063       O  0.83375193  0.28456212  0.34000912    -0.59500
H1064       H  0.84837820  0.32160447  0.37195867     0.15000
H1065       H  0.91758055  0.41962546  0.38888800     0.46900
H1066       H  0.87905751  0.37546322  0.28494901     0.42200
H1067       H  0.84703470  0.28252882  0.33999209     0.45700
H1068       H  0.81553226  0.34975340  0.35788540     0.37200
C1069       C  0.98890763  0.51703501  0.48051933    -0.27100
C1070       C  0.99378682  0.50008439  0.48788994     0.02500
C1071       C  0.97734140  0.47747102  0.48305548     0.30600
C1072       C  0.95627179  0.47201763  0.47138959    -0.18900
C1073       C  0.95131900  0.48890388  0.46386583    -0.28300
C1074       C  0.96783293  0.51159181  0.46859485     0.44600
C1075       C  0.01630088  0.50612788  0.49971249     0.05800
O1076       O  0.98182410  0.46059277  0.48928109    -0.56800
H1077       H  0.94383712  0.45447234  0.46781582     0.18800
O1078       O  0.96345494  0.52851417  0.46217948    -0.63500
H1079       H  0.00145125  0.53452682  0.48420696     0.17200
C1080       C  0.03544600  0.51826347  0.48125611     0.29500
C1081       C  0.05665394  0.52383126  0.49251366    -0.24400
C1082       C  0.05929583  0.51765958  0.52239144    -0.23700
C1083       C  0.03999423  0.50538727  0.54089946     0.40900
C1084       C  0.01869106  0.49956706  0.52938139    -0.26100
O1085       O  0.03347544  0.52412667  0.45175550    -0.58000
H1086       H  0.07112105  0.53315200  0.47773518     0.16500
O1087       O  0.04170161  0.49913342  0.57027099    -0.59500
H1088       H  0.00401429  0.49018072  0.54379947     0.15000
H1089       H  0.95744995  0.53104045  0.48163611     0.46900
H1090       H  0.03694986  0.53993066  0.45318725     0.42200
H1091       H  0.04222784  0.51103881  0.58379468     0.45700
H1092       H  0.98817674  0.45842392  0.46990987     0.37200
C1093       C  0.47733350  0.33141689  0.33827589    -0.27100
C1094       C  0.49197361  0.32446276  0.32664041     0.02500
C1095       C  0.51490783  0.33690257  0.33454945     0.30600
C1096       C  0.52269923  0.35530058  0.35450362    -0.18900
C1097       C  0.50800878  0.36178128  0.36716346    -0.28300
C1098       C  0.48520279  0.34999718  0.35826661     0.44600
C1099       C  0.48322810  0.30349354  0.30797628     0.05800
O1100       O  0.52977457  0.33070505  0.32383217    -0.56800
H1101       H  0.54034528  0.36422094  0.36069051     0.18800
O1102       O  0.47023790  0.35562129  0.37028277    -0.63500
H1103       H  0.45966920  0.32218494  0.33224915     0.17200
C1104       C  0.46606752  0.28278951  0.31942426     0.29500
C1105       C  0.45978138  0.26282982  0.30320782    -0.24400
C1106       C  0.47043559  0.26295196  0.27545961    -0.23700
C1107       C  0.48719645  0.28379191  0.26357739     0.40900
C1108       C  0.49330007  0.30378698  0.27966601    -0.26100
O1109       O  0.45643458  0.28168856  0.34753205    -0.58000
H1110       H  0.44699799  0.24708981  0.31303760     0.16500
O1111       O  0.49778621  0.28488098  0.23631803    -0.59500
H1112       H  0.50636465  0.31958139  0.27032137     0.15000
H1113       H  0.46838932  0.36470552  0.35411997     0.46900
H1114       H  0.44148911  0.27978235  0.34282291     0.42200
H1115       H  0.51199294  0.28549679  0.24225354     0.45700
H1116       H  0.53005663  0.32059153  0.33980667     0.37200
C1117       C  0.50964849  0.19650742  0.10988589    -0.27100
C1118       C  0.50435012  0.17420547  0.10504411     0.02500
C1119       C  0.49120716  0.15778141  0.12691899     0.30600
C1120       C  0.48294462  0.16356132  0.15269314    -0.18900
C1121       C  0.48743701  0.18569448  0.15719029    -0.28300
C1122       C  0.50131425  0.20234327  0.13572483     0.44600
C1123       C  0.51112943  0.16767775  0.07617456     0.05800
O1124       O  0.48654752  0.13602806  0.12336720    -0.56800
H1125       H  0.47267314  0.15049315  0.16899697     0.18800
O1126       O  0.50608220  0.22412868  0.13898580    -0.63500
H1127       H  0.51969927  0.20927828  0.09310087     0.17200
C1128       C  0.49470673  0.15363419  0.05473222     0.29500
C1129       C  0.50084026  0.14610408  0.02856332    -0.24400
C1130       C  0.52338182  0.15233195  0.02309416    -0.23700
C1131       C  0.53997255  0.16702860  0.04417717     0.40900
C1132       C  0.53377408  0.17470869  0.07038096    -0.26100
O1133       O  0.47247135  0.14680393  0.05947840    -0.58000
H1134       H  0.48773988  0.13495752  0.01278091     0.16500
O1135       O  0.56223177  0.17395705  0.03952698    -0.59500
H1136       H  0.54658675  0.18567388  0.08663438     0.15000
H1137       H  0.52048089  0.23185091  0.15046922     0.46900
H1138       H  0.47061540  0.15936599  0.05199437     0.42200
H1139       H  0.56503379  0.16340076  0.05158586     0.45700
H1140       H  0.47068621  0.12744477  0.11640859     0.37200
C1141       C  0.14067540  0.99494901  0.98497502    -0.27100
C1142       C  0.16296962  0.00557504  0.99537062     0.02500
C1143       C  0.17718772  0.99774388  0.98485811     0.30600
C1144       C  0.16932985  0.98018987  0.96323568    -0.18900
C1145       C  0.14733409  0.97024503  0.95155877    -0.28300
C1146       C  0.13282763  0.97752393  0.96319174     0.44600
C1147       C  0.17161559  0.02575446  0.01549753     0.05800
O1148       O  0.19865769  0.00689837  0.99613049    -0.56800
H1149       H  0.18067098  0.97465326  0.95520619     0.18800
O1150       O  0.11091205  0.96772931  0.95356693    -0.63500
H1151       H  0.12948997  0.00067993  0.99303838     0.17200
C1152       C  0.18931608  0.04659168  0.00540310     0.29500
C1153       C  0.19714928  0.06566934  0.02407286    -0.24400
C1154       C  0.18738117  0.06465308  0.05293579    -0.23700
C1155       C  0.16932582  0.04380785  0.06286477     0.40900
C1156       C  0.16161285  0.02458195  0.04418244    -0.26100
O1157       O  0.19878481  0.04861879  0.97691507    -0.58000
H1158       H  0.21079818  0.08144654  0.01558532     0.16500
O1159       O  0.15905412  0.04197412  0.09065566    -0.59500
H1160       H  0.14776266  0.00871138  0.05208099     0.15000
H1161       H  0.11089967  0.97769964  0.93714336     0.46900
H1162       H  0.18944808  0.05169917  0.96260718     0.42200
H1163       H  0.14620562  0.04419075  0.08596554     0.45700
H1164       H  0.20870279  0.01517255  0.97866175     0.37200
C1165       C  0.13646628  0.15682014  0.26835034    -0.27100
C1166       C  0.15886901  0.16267469  0.26288262     0.02500
C1167       C  0.17558862  0.17696580  0.28387908     0.30600
C1168       C  0.17011526  0.18624927  0.30874314    -0.18900
C1169       C  0.14791118  0.18137868  0.31357869    -0.28300
C1170       C  0.13088269  0.16590963  0.29362267     0.44600
C1171       C  0.16536590  0.15551446  0.23423284     0.05800
O1172       O  0.19754929  0.18249512  0.27976402    -0.56800
H1173       H  0.18348279  0.19768071  0.32398685     0.18800
O1174       O  0.10891163  0.16027852  0.29774579    -0.63500
H1175       H  0.12340186  0.14580007  0.25243517     0.17200
C1176       C  0.15753205  0.13275885  0.22728609     0.29500
C1177       C  0.16622978  0.12701145  0.20171485    -0.24400
C1178       C  0.18257766  0.14376448  0.18258836    -0.23700
C1179       C  0.18945511  0.16648906  0.18890788     0.40900
C1180       C  0.18085182  0.17211086  0.21440428    -0.26100
O1181       O  0.14232014  0.11613334  0.24620846    -0.58000
H1182       H  0.16047140  0.10944682  0.19721421     0.16500
O1183       O  0.20449675  0.18345473  0.17022627    -0.59500
H1184       H  0.18666957  0.18967672  0.21909615     0.15000
H1185       H  0.10225345  0.14662106  0.31077898     0.46900
H1186       H  0.12748719  0.11071514  0.23626988     0.42200
H1187       H  0.21925778  0.18950265  0.18059722     0.45700
H1188       H  0.19846476  0.16955756  0.28800587     0.37200
C1189       C  0.31985029  0.17250471  0.14252214    -0.27100
C1190       C  0.32246798  0.15578302  0.15719000     0.02500
C1191       C  0.30367152  0.13402560  0.15976253     0.30600
C1192       C  0.28271585  0.12933440  0.14828709    -0.18900
C1193       C  0.27992467  0.14603286  0.13379470    -0.28300
C1194       C  0.29887217  0.16779587  0.13081504     0.44600
C1195       C  0.34465040  0.16127372  0.17044617     0.05800
O1196       O  0.30559637  0.11716465  0.17350693    -0.56800
H1197       H  0.26855341  0.11245349  0.15077834     0.18800
O1198       O  0.29694820  0.18484118  0.11768644    -0.63500
H1199       H  0.33404718  0.18942781  0.14066684     0.17200
C1200       C  0.36413689  0.17037099  0.15208829     0.29500
C1201       C  0.38495298  0.17609767  0.16529707    -0.24400
C1202       C  0.38688005  0.17294661  0.19692754    -0.23700
C1203       C  0.36723133  0.16329856  0.21513675     0.40900
C1204       C  0.34640934  0.15757231  0.20188181    -0.26100
O1205       O  0.36286581  0.17304470  0.12099738    -0.58000
H1206       H  0.39968799  0.18315030  0.15064949     0.16500
O1207       O  0.36815977  0.15968777  0.24599874    -0.59500
H1208       H  0.33159960  0.15058302  0.21638093     0.15000
H1209       H  0.30206615  0.18569724  0.09611583     0.46900
H1210       H  0.36888924  0.18935884  0.11803587     0.42200
H1211       H  0.37047668  0.17358148  0.25628986     0.45700
H1212       H  0.31014374  0.11044020  0.15674942     0.37200
C1213       C  0.85369804  0.52544565  0.83833283    -0.27100
C1214       C  0.84529114  0.50216550  0.83626405     0.02500
C1215       C  0.82932844  0.48970614  0.81342255     0.30600
C1216       C  0.82227313  0.50047567  0.79277873    -0.18900
C1217       C  0.83102480  0.52384795  0.79405125    -0.28300
C1218       C  0.84670909  0.53632423  0.81742166     0.44600
C1219       C  0.85302230  0.49066174  0.85776163     0.05800
O1220       O  0.81994262  0.46678806  0.81183612    -0.56800
H1221       H  0.80998405  0.49036726  0.77542237     0.18800
O1222       O  0.85531598  0.55906168  0.82009452    -0.63500
H1223       H  0.86585966  0.53521684  0.85600435     0.17200
C1224       C  0.86470982  0.48019230  0.84661245     0.29500
C1225       C  0.86984700  0.46736478  0.86643620    -0.24400
C1226       C  0.86322996  0.46439394  0.89756140    -0.23700
C1227       C  0.85221370  0.47558303  0.90893544     0.40900
C1228       C  0.84723888  0.48860602  0.88908954    -0.26100
O1229       O  0.87140815  0.48267987  0.81637836    -0.58000
H1230       H  0.87860168  0.45926344  0.85709984     0.16500
O1231       O  0.84587489  0.47364150  0.93922716    -0.59500
H1232       H  0.83823982  0.49658287  0.89797997     0.15000
H1233       H  0.84458785  0.56074657  0.83354468     0.46900
H1234       H  0.86219540  0.46764800  0.80680367     0.42200
H1235       H  0.85923328  0.48552958  0.95018847     0.45700
H1236       H  0.82548404  0.46381761  0.79227950     0.37200
C1237       C  0.85308439  0.52438283  0.60944672    -0.27100
C1238       C  0.83673395  0.50684052  0.59133642     0.02500
C1239       C  0.81389191  0.49755048  0.59955241     0.30600
C1240       C  0.80785197  0.50600848  0.62507232    -0.18900
C1241       C  0.82426007  0.52403377  0.64257349    -0.28300
C1242       C  0.84707222  0.53331488  0.63420147     0.44600
C1243       C  0.84382446  0.49909548  0.56350272     0.05800
O1244       O  0.79726512  0.48046417  0.58254613    -0.56800
H1245       H  0.79023345  0.49857042  0.63094767     0.18800
O1246       O  0.86378735  0.55125099  0.64992413    -0.63500
H1247       H  0.87075910  0.53144289  0.60426221     0.17200
C1248       C  0.85965577  0.51477181  0.54265578     0.29500
C1249       C  0.86635607  0.50737462  0.51685798    -0.24400
C1250       C  0.85762514  0.48437118  0.51096293    -0.23700
C1251       C  0.84163535  0.46862070  0.53157425     0.40900
C1252       C  0.83497298  0.47602643  0.55761080    -0.26100
O1253       O  0.86795376  0.53740946  0.54650601    -0.58000
H1254       H  0.87847937  0.51988331  0.50130019     0.16500
O1255       O  0.83215973  0.44597950  0.52636045    -0.59500
H1256       H  0.82301707  0.46363954  0.57342734     0.15000
H1257       H  0.86563564  0.56475676  0.63910429     0.46900
H1258       H  0.88410644  0.54388494  0.55158381     0.42200
H1259       H  0.84074919  0.44117791  0.53948154     0.45700
H1260       H  0.79403545  0.48799398  0.56554229     0.37200
C1261       C  0.85301918  0.86032654  0.51924269    -0.27100
C1262       C  0.83608861  0.84738148  0.49802950     0.02500
C1263       C  0.82615575  0.82386321  0.49818198     0.30600
C1264       C  0.83310324  0.81349719  0.51974306    -0.18900
C1265       C  0.84979591  0.82638422  0.54154999    -0.28300
C1266       C  0.85979921  0.85008002  0.54104121     0.44600
C1267       C  0.82786932  0.85866490  0.47747750     0.05800
O1268       O  0.80997022  0.81097890  0.47694288    -0.56800
H1269       H  0.82533995  0.79535876  0.51944761     0.18800
O1270       O  0.87618666  0.86348318  0.56175027    -0.63500
H1271       H  0.86060271  0.87846235  0.51941845     0.17200
C1272       C  0.80662711  0.85629923  0.48246854     0.29500
C1273       C  0.79965461  0.86851465  0.46469449    -0.24400
C1274       C  0.81376594  0.88349173  0.44200426    -0.23700
C1275       C  0.83501488  0.88564842  0.43675488     0.40900
C1276       C  0.84192970  0.87327424  0.45453912    -0.26100
O1277       O  0.79286557  0.84264491  0.50541375    -0.58000
H1278       H  0.78331590  0.86663314  0.46926160     0.16500
O1279       O  0.84938480  0.90018010  0.41498252    -0.59500
H1280       H  0.85845743  0.87538453  0.45085011     0.15000
H1281       H  0.86807816  0.86572276  0.57905881     0.46900
H1282       H  0.79740737  0.85221784  0.52416434     0.42200
H1283       H  0.85869937  0.91458729  0.42606130     0.45700
H1284       H  0.79549265  0.80481352  0.48808114     0.37200
C1285       C  0.86141621  0.85088054  0.72545036    -0.27100
C1286       C  0.84075530  0.83705594  0.74000597     0.02500
C1287       C  0.82611301  0.81554367  0.72770214     0.30600
C1288       C  0.83264528  0.80788036  0.70195623    -0.18900
C1289       C  0.85373404  0.82133269  0.68820316    -0.28300
C1290       C  0.86791417  0.84322124  0.69969497     0.44600
C1291       C  0.83478953  0.84510722  0.76823512     0.05800
O1292       O  0.80506813  0.80231599  0.73999978    -0.56800
H1293       H  0.82123723  0.79123234  0.69297357     0.18800
O1294       O  0.88809585  0.85735074  0.68583850    -0.63500
H1295       H  0.87271097  0.86757605  0.73437325     0.17200
C1296       C  0.82876414  0.83229311  0.79540864     0.29500
C1297       C  0.82209982  0.83952956  0.82136719    -0.24400
C1298       C  0.82175987  0.85973488  0.82106910    -0.23700
C1299       C  0.82911769  0.87329273  0.79454527     0.40900
C1300       C  0.83535454  0.86581892  0.76823912    -0.26100
O1301       O  0.83031755  0.81319777  0.79713963    -0.58000
H1302       H  0.81719379  0.82924429  0.84191687     0.16500
O1303       O  0.82916351  0.89322576  0.79351393    -0.59500
H1304       H  0.84025134  0.87601460  0.74761239     0.15000
H1305       H  0.88457511  0.86529552  0.66971882     0.46900
H1306       H  0.81491195  0.80075365  0.80169834     0.42200
H1307       H  0.84467587  0.90489406  0.79924063     0.45700
H1308       H  0.80466100  0.78847068  0.74728084     0.37200
C1309       C  0.84834356  0.70086386  0.67652035    -0.27100
C1310       C  0.84410927  0.68433254  0.65434424     0.02500
C1311       C  0.84470059  0.68959240  0.62290557     0.30600
C1312       C  0.84924767  0.71107725  0.61407681    -0.18900
C1313       C  0.85372543  0.72771314  0.63629762    -0.28300
C1314       C  0.85315750  0.72238204  0.66775675     0.44600
C1315       C  0.83861665  0.66156193  0.66447223     0.05800
O1316       O  0.84121182  0.67396308  0.60066068    -0.56800
H1317       H  0.84982796  0.71490630  0.58979635     0.18800
O1318       O  0.85706723  0.73801582  0.69020150    -0.63500
H1319       H  0.84769838  0.69698798  0.70079533     0.17200
C1320       C  0.85388536  0.65837425  0.68219891     0.29500
C1321       C  0.84788598  0.63689436  0.69301507    -0.24400
C1322       C  0.82660162  0.61828373  0.68662100    -0.23700
C1323       C  0.81136369  0.62156237  0.66861939     0.40900
C1324       C  0.81750213  0.64300929  0.65759961    -0.26100
O1325       O  0.87495920  0.67609017  0.68831975    -0.58000
H1326       H  0.85996088  0.63483847  0.70648256     0.16500
O1327       O  0.79032020  0.60402522  0.66184935    -0.59500
H1328       H  0.80551430  0.64526470  0.64420045     0.15000
H1329       H  0.84211773  0.73616135  0.69489607     0.46900
H1330       H  0.87427263  0.68062600  0.70981005     0.42200
H1331       H  0.78052805  0.60394841  0.67869288     0.45700
H1332       H  0.85620594  0.67566962  0.59687637     0.37200
C1333       C  0.98123647  0.16038325  0.06399432    -0.27100
C1334       C  0.97992662  0.16434202  0.03256002     0.02500
C1335       C  0.95880060  0.15382712  0.01798301     0.30600
C1336       C  0.93945591  0.13957549  0.03473988    -0.18900
C1337       C  0.94070028  0.13522771  0.06605229    -0.28300
C1338       C  0.96185764  0.14587447  0.08072212     0.44600
C1339       C  0.00075384  0.17738765  0.01431910     0.05800
O1340       O  0.95710676  0.15599889  0.98683676    -0.56800
H1341       H  0.92346628  0.13132008  0.02279143     0.18800
O1342       O  0.96381505  0.14238356  0.11135547    -0.63500
H1343       H  0.99741840  0.16824421  0.07544415     0.17200
C1344       C  0.00409122  0.19543804  0.99545268     0.29500
C1345       C  0.02225194  0.20506665  0.97493241    -0.24400
C1346       C  0.03730066  0.19694918  0.97300411    -0.23700
C1347       C  0.03480666  0.17998269  0.99346980     0.40900
C1348       C  0.01670496  0.17042911  0.01396493    -0.26100
O1349       O  0.98935811  0.20334562  0.99627454    -0.58000
H1350       H  0.02405200  0.21830697  0.95970186     0.16500
O1351       O  0.04999333  0.17262009  0.99366425    -0.59500
H1352       H  0.01457322  0.15680738  0.02867451     0.15000
H1353       H  0.96775618  0.13037348  0.11183283     0.46900
H1354       H  0.99484473  0.21462862  0.01313420     0.42200
H1355       H  0.04269857  0.15828429  0.98195072     0.45700
H1356       H  0.94955854  0.16496854  0.98459629     0.37200
C1357       C  0.15645597  0.15351942  0.00306541    -0.27100
C1358       C  0.16969290  0.17550109  0.99218325     0.02500
C1359       C  0.19233538  0.18816808  0.00150466     0.30600
C1360       C  0.20128075  0.17890136  0.02194980    -0.18900
C1361       C  0.18779528  0.15705962  0.03361844    -0.28300
C1362       C  0.16525786  0.14426938  0.02349515     0.44600
C1363       C  0.15900932  0.18532769  0.97296731     0.05800
O1364       O  0.20571645  0.20973741  0.99121310    -0.56800
H1365       H  0.21861191  0.18902593  0.02927969     0.18800
O1366       O  0.15144254  0.12278556  0.03382836    -0.63500
H1367       H  0.13896041  0.14364537  0.99631569     0.17200
C1368       C  0.14900190  0.17569242  0.94447002     0.29500
C1369       C  0.13657344  0.18352682  0.92852201    -0.24400
C1370       C  0.13368013  0.20084084  0.94078566    -0.23700
C1371       C  0.14414227  0.21073381  0.96915677     0.40900
C1372       C  0.15679432  0.20308241  0.98478210    -0.26100
O1373       O  0.15144150  0.15870701  0.93196975    -0.58000
H1374       H  0.12883497  0.17572283  0.90678016     0.16500
O1375       O  0.14151603  0.22737618  0.98246965    -0.59500
H1376       H  0.16411919  0.21041744  0.00691733     0.15000
H1377       H  0.15377750  0.11299562  0.01928256     0.46900
H1378       H  0.13710928  0.14470159  0.93633214     0.42200
H1379       H  0.12821691  0.21943964  0.99609241     0.45700
H1380       H  0.21103380  0.20816212  0.97061323     0.37200
C1381       C  0.37834457  0.53326750  0.65958567    -0.27100
C1382       C  0.35819969  0.52259481  0.64294447     0.02500
C1383       C  0.35867224  0.52499022  0.61075088     0.30600
C1384       C  0.37932403  0.53739882  0.59548994    -0.18900
C1385       C  0.39961903  0.54747155  0.61209652    -0.28300
C1386       C  0.39889854  0.54578005  0.64452464     0.44600
C1387       C  0.33697076  0.50901176  0.65990410     0.05800
O1388       O  0.33911244  0.51501203  0.59403997    -0.56800
H1389       H  0.37948752  0.53875732  0.57063115     0.18800
O1390       O  0.41816690  0.55639452  0.66183485    -0.63500
H1391       H  0.37809785  0.53190783  0.68446475     0.17200
C1392       C  0.33317666  0.48977400  0.67619826     0.29500
C1393       C  0.31477500  0.47900461  0.69610130    -0.24400
C1394       C  0.30012370  0.48739987  0.70037413    -0.23700
C1395       C  0.30329325  0.50598166  0.68268318     0.40900
C1396       C  0.32154414  0.51652368  0.66244938    -0.26100
O1397       O  0.34799803  0.48202861  0.67390850    -0.58000
H1398       H  0.31267425  0.46479280  0.70941471     0.16500
O1399       O  0.28881405  0.51414145  0.68525487    -0.59500
H1400       H  0.32426693  0.53125522  0.64986653     0.15000
H1401       H  0.42076216  0.57176131  0.66554534     0.46900
H1402       H  0.34397222  0.47324006  0.65446374     0.42200
H1403       H  0.29654614  0.52749989  0.69888581     0.45700
H1404       H  0.33629152  0.49972243  0.58915108     0.37200
C1405       C  0.19042778  0.50539479  0.72608424    -0.27100
C1406       C  0.18126911  0.49488009  0.69773528     0.02500
C1407       C  0.18456933  0.47730935  0.68765857     0.30600
C1408       C  0.19718606  0.47078153  0.70551452    -0.18900
C1409       C  0.20686541  0.48157703  0.73358357    -0.28300
C1410       C  0.20314276  0.49888925  0.74399324     0.44600
C1411       C  0.17020661  0.50368898  0.67738230     0.05800
O1412       O  0.17697095  0.46757692  0.65928048    -0.56800
H1413       H  0.19997523  0.45763285  0.69671493     0.18800
O1414       O  0.21197474  0.50971519  0.77139658    -0.63500
H1415       H  0.18808272  0.51901720  0.73404249     0.17200
C1416       C  0.14829788  0.48973105  0.66597880     0.29500
C1417       C  0.13942885  0.49787035  0.64378321    -0.24400
C1418       C  0.15208090  0.52000679  0.63278187    -0.23700
C1419       C  0.17361668  0.53427203  0.64548486     0.40900
C1420       C  0.18241529  0.52607662  0.66760816    -0.26100
O1421       O  0.13557647  0.46799284  0.67599039    -0.58000
H1422       H  0.12277694  0.48665566  0.63472959     0.16500
O1423       O  0.18635682  0.55623820  0.63635572    -0.59500
H1424       H  0.19923100  0.53706600  0.67635219     0.15000
H1425       H  0.22632544  0.52336335  0.76589094     0.46900
H1426       H  0.12759509  0.46888329  0.69450190     0.42200
H1427       H  0.19676185  0.55623607  0.62053380     0.45700
H1428       H  0.16437931  0.45219791  0.66351654     0.37200
C1429       C  0.17529120  0.37447202  0.84941504    -0.27100
C1430       C  0.17321422  0.35491078  0.83623149     0.02500
C1431       C  0.18683496  0.35677384  0.81084082     0.30600
C1432       C  0.20249412  0.37798231  0.79937486    -0.18900
C1433       C  0.20488560  0.39766536  0.81285047    -0.28300
C1434       C  0.19077776  0.39567337  0.83783077     0.44600
C1435       C  0.15676456  0.33260486  0.84890991     0.05800
O1436       O  0.18511556  0.33795066  0.79722239    -0.56800
H1437       H  0.21290947  0.37899589  0.78001592     0.18800
O1438       O  0.19188176  0.41429668  0.85116756    -0.63500
H1439       H  0.16462763  0.37329884  0.86854372     0.17200
C1440       C  0.15735183  0.32735337  0.88013943     0.29500
C1441       C  0.14280622  0.30553207  0.89085124    -0.24400
C1442       C  0.12759640  0.28881077  0.87072911    -0.23700
C1443       C  0.12614884  0.29444078  0.83999604     0.40900
C1444       C  0.14069904  0.31615339  0.82929458    -0.26100
O1445       O  0.17300810  0.34301443  0.89983122    -0.58000
H1446       H  0.14403212  0.30146929  0.91459381     0.16500
O1447       O  0.11065573  0.27878458  0.82013793    -0.59500
H1448       H  0.13961904  0.32011291  0.80545380     0.15000
H1449       H  0.18077042  0.41669425  0.83980065     0.46900
H1450       H  0.16459679  0.34818492  0.91278792     0.42200
H1451       H  0.09657659  0.27904685  0.82399026     0.45700
H1452       H  0.19483441  0.33419916  0.80967873     0.37200
C1453       C  0.67376225  0.18316297  0.84464131    -0.27100
C1454       C  0.66332828  0.16075374  0.85449558     0.02500
C1455       C  0.67149591  0.14689189  0.84338492     0.30600
C1456       C  0.68930426  0.15533827  0.82220458    -0.18900
C1457       C  0.69939092  0.17765789  0.81186169    -0.28300
C1458       C  0.69167225  0.19168932  0.82383522     0.44600
C1459       C  0.64308783  0.15185649  0.87460793     0.05800
O1460       O  0.66202593  0.12497692  0.85275966    -0.56800
H1461       H  0.69494769  0.14424659  0.81345691     0.18800
O1462       O  0.70154423  0.21386828  0.81551444    -0.63500
H1463       H  0.66759146  0.19405355  0.85236049     0.17200
C1464       C  0.64255235  0.16387938  0.90070158     0.29500
C1465       C  0.62237927  0.15655973  0.91687338    -0.24400
C1466       C  0.60254067  0.13714289  0.90766165    -0.23700
C1467       C  0.60345885  0.12443495  0.88265519     0.40900
C1468       C  0.62345241  0.13199319  0.86618005    -0.26100
O1469       O  0.66176505  0.18258653  0.91082163    -0.58000
H1470       H  0.62221568  0.16636079  0.93635369     0.16500
O1471       O  0.58462437  0.10523756  0.87289336    -0.59500
H1472       H  0.62332947  0.12265062  0.84597561     0.15000
H1473       H  0.69164932  0.21438582  0.79936969     0.46900
H1474       H  0.65935252  0.19544784  0.90716215     0.42200
H1475       H  0.58495834  0.09281317  0.88392841     0.45700
H1476       H  0.67004949  0.12556010  0.87199215     0.37200
C1477       C  0.81763867  0.28487625  0.83173617    -0.27100
C1478       C  0.81813517  0.30484337  0.82382902     0.02500
C1479       C  0.80827663  0.30577395  0.79584912     0.30600
C1480       C  0.79702083  0.28650966  0.77717935    -0.18900
C1481       C  0.79541279  0.26610560  0.78594994    -0.28300
C1482       C  0.80658203  0.26571276  0.81307328     0.44600
C1483       C  0.82838344  0.32425184  0.84551096     0.05800
O1484       O  0.81004274  0.32559460  0.78630182    -0.56800
H1485       H  0.78906483  0.28744642  0.75617693     0.18800
O1486       O  0.80623117  0.24649592  0.82224343    -0.63500
H1487       H  0.82535189  0.28393287  0.85299058     0.17200
C1488       C  0.81590734  0.33388587  0.85678301     0.29500
C1489       C  0.82571793  0.35197176  0.87741988    -0.24400
C1490       C  0.84790788  0.36059561  0.88777440    -0.23700
C1491       C  0.86012356  0.35039252  0.87741850     0.40900
C1492       C  0.85038606  0.33247345  0.85636352    -0.26100
O1493       O  0.79392445  0.32547560  0.84826284    -0.58000
H1494       H  0.81581724  0.35922699  0.88539497     0.16500
O1495       O  0.88152095  0.35766492  0.88776662    -0.59500
H1496       H  0.86006707  0.32496128  0.84844654     0.15000
H1497       H  0.81957071  0.24717509  0.81236822     0.46900
H1498       H  0.78504455  0.31289526  0.86265051     0.42200
H1499       H  0.87959997  0.34899798  0.90685700     0.45700
H1500       H  0.79452207  0.32303572  0.78659167     0.37200
C1501       C  0.00143856  0.15887788  0.49623697    -0.27100
C1502       C  0.01534614  0.18202771  0.49140749     0.02500
C1503       C  0.01020941  0.19707420  0.50647649     0.30600
C1504       C  0.99191755  0.18890168  0.52690793    -0.18900
C1505       C  0.97867526  0.16578630  0.53295164    -0.28300
C1506       C  0.98335343  0.15072005  0.51684960     0.44600
C1507       C  0.03557692  0.19010575  0.47152419     0.05800
O1508       O  0.02262707  0.21971375  0.50068442    -0.56800
H1509       H  0.98847093  0.20076303  0.53864004     0.18800
O1510       O  0.97011962  0.12792566  0.52065100    -0.63500
H1511       H  0.00498247  0.14704840  0.48458412     0.17200
C1512       C  0.05719596  0.20501953  0.48312934     0.29500
C1513       C  0.07617077  0.21129930  0.46482521    -0.24400
C1514       C  0.07420383  0.20249565  0.43497247    -0.23700
C1515       C  0.05254537  0.18773315  0.42319305     0.40900
C1516       C  0.03349322  0.18161161  0.44146874    -0.26100
O1517       O  0.06008382  0.21281741  0.51284907    -0.58000
H1518       H  0.09258311  0.22250573  0.47459706     0.16500
O1519       O  0.04976549  0.17875683  0.39418729    -0.59500
H1520       H  0.01700729  0.16998996  0.43224800     0.15000
H1521       H  0.97867235  0.12364039  0.53470818     0.46900
H1522       H  0.06106229  0.20133707  0.52541424     0.42200
H1523       H  0.04784083  0.18920737  0.38058507     0.45700
H1524       H  0.03034126  0.22678089  0.52032359     0.37200
C1525       C  0.81916022  0.00722594  0.50188266    -0.27100
C1526       C  0.84168956  0.01571235  0.51026301     0.02500
C1527       C  0.85312604  0.00491697  0.49953576     0.30600
C1528       C  0.84224947  0.98626984  0.47996923    -0.18900
C1529       C  0.81985299  0.97803795  0.47065978    -0.28300
C1530       C  0.80818504  0.98847132  0.48231900     0.44600
C1531       C  0.85380437  0.03671750  0.52842310     0.05800
O1532       O  0.87517542  0.01289043  0.50736696    -0.56800
H1533       H  0.85160606  0.97855570  0.47148816     0.18800
O1534       O  0.78629558  0.98092188  0.47412715    -0.63500
H1535       H  0.81022126  0.01546290  0.51003463     0.17200
C1536       C  0.86037263  0.05757916  0.51467419     0.29500
C1537       C  0.87397335  0.07752633  0.53091259    -0.24400
C1538       C  0.88111172  0.07706576  0.56112293    -0.23700
C1539       C  0.87361270  0.05604554  0.57531323     0.40900
C1540       C  0.86029407  0.03609972  0.55882358    -0.26100
O1541       O  0.85459298  0.05864622  0.48476666    -0.58000
H1542       H  0.87939517  0.09340939  0.51948479     0.16500
O1543       O  0.87940120  0.05474145  0.60511339    -0.59500
H1544       H  0.85522264  0.02008715  0.56964965     0.15000
H1545       H  0.78717212  0.98967650  0.45556561     0.46900
H1546       H  0.84021045  0.05862619  0.48612847     0.42200
H1547       H  0.86780961  0.05538555  0.61797984     0.45700
H1548       H  0.88407204  0.02449768  0.49174933     0.37200
C1549       C  0.98570041  0.14973247  0.73278675    -0.27100
C1550       C  0.00122287  0.17263081  0.73754606     0.02500
C1551       C  0.00197452  0.18843738  0.71638343     0.30600
C1552       C  0.98734214  0.18127791  0.69108233    -0.18900
C1553       C  0.97159165  0.15838158  0.68632901    -0.28300
C1554       C  0.97084563  0.14256223  0.70762863     0.44600
C1555       C  0.01622778  0.17988193  0.76496779     0.05800
O1556       O  0.01763742  0.21083557  0.71955460    -0.56800
H1557       H  0.98847441  0.19381224  0.67501876     0.18800
O1558       O  0.95579792  0.12006343  0.70409125    -0.63500
H1559       H  0.98485799  0.13737656  0.74895078     0.17200
C1560       C  0.01569162  0.19482080  0.78671959     0.29500
C1561       C  0.02962165  0.20124375  0.81263354    -0.24400
C1562       C  0.04440637  0.19305169  0.81765617    -0.23700
C1563       C  0.04513272  0.17824276  0.79570326     0.40900
C1564       C  0.03090592  0.17156486  0.76983289    -0.26100
O1565       O  0.00137287  0.20306390  0.78311605    -0.58000
H1566       H  0.02879382  0.21277117  0.82891902     0.16500
O1567       O  0.05922868  0.16977378  0.79958896    -0.59500
H1568       H  0.03148076  0.16001064  0.75334053     0.15000
H1569       H  0.94271625  0.11711582  0.71703995     0.46900
H1570       H  0.98684748  0.19142001  0.79189208     0.42200
H1571       H  0.07277975  0.17967585  0.78723657     0.45700
H1572       H  0.00895536  0.21839313  0.72443610     0.37200
C1573       C  0.86165081  0.18130482  0.64846789    -0.27100
C1574       C  0.84385862  0.16471027  0.66601475     0.02500
C1575       C  0.84266198  0.14383658  0.67015413     0.30600
C1576       C  0.85922132  0.14005675  0.65736926    -0.18900
C1577       C  0.87715820  0.15673099  0.64009616    -0.28300
C1578       C  0.87815274  0.17748053  0.63557972     0.44600
C1579       C  0.82640052  0.16931412  0.67879021     0.05800
O1580       O  0.82470127  0.12660656  0.68511199    -0.56800
H1581       H  0.85780547  0.12380422  0.66074850     0.18800
O1582       O  0.89514246  0.19418068  0.61866104    -0.63500
H1583       H  0.86286676  0.19745208  0.64490102     0.17200
C1584       C  0.82005995  0.16582514  0.71015510     0.29500
C1585       C  0.80407315  0.17105436  0.72140377    -0.24400
C1586       C  0.79461491  0.18044455  0.70206124    -0.23700
C1587       C  0.80091233  0.18382253  0.67071340     0.40900
C1588       C  0.81655056  0.17824129  0.65940244    -0.26100
O1589       O  0.82993454  0.15809897  0.73031983    -0.58000
H1590       H  0.79967801  0.16849997  0.74560872     0.16500
O1591       O  0.79201847  0.19273791  0.65082386    -0.59500
H1592       H  0.82107600  0.18099406  0.63524543     0.15000
H1593       H  0.90672500  0.20383949  0.63394571     0.46900
H1594       H  0.84435311  0.17153300  0.73627788     0.42200
H1595       H  0.77829441  0.17963123  0.64234742     0.45700
H1596       H  0.83103933  0.12350739  0.70371868     0.37200
C1597       C  0.28548088  0.81802161  0.68341692    -0.27100
C1598       C  0.30515063  0.81809002  0.69190356     0.02500
C1599       C  0.30522412  0.80710495  0.71915514     0.30600
C1600       C  0.28549676  0.79528708  0.73662356    -0.18900
C1601       C  0.26535194  0.79400979  0.72721624    -0.28300
C1602       C  0.26568180  0.80606334  0.70066425     0.44600
C1603       C  0.32492311  0.82819805  0.67098449     0.05800
O1604       O  0.32461933  0.80804798  0.72898502    -0.56800
H1605       H  0.28586603  0.78655969  0.75712256     0.18800
O1606       O  0.24671491  0.80606525  0.69101370    -0.63500
H1607       H  0.28522286  0.82654917  0.66262330     0.17200
C1608       C  0.33250581  0.81465446  0.65726777     0.29500
C1609       C  0.35078808  0.82408136  0.63703226    -0.24400
C1610       C  0.36175105  0.84706108  0.62952129    -0.23700
C1611       C  0.35397743  0.86061287  0.64303601     0.40900
C1612       C  0.33569171  0.85113706  0.66354799    -0.26100
O1613       O  0.32182679  0.79200592  0.66298488    -0.58000
H1614       H  0.35616091  0.81317071  0.62681922     0.16500
O1615       O  0.36410516  0.88310568  0.63652163    -0.59500
H1616       H  0.32989214  0.86172398  0.67369234     0.15000
H1617       H  0.24006518  0.79426158  0.67486512     0.46900
H1618       H  0.30931648  0.78510452  0.64790242     0.42200
H1619       H  0.35536195  0.88419546  0.61915785     0.45700
H1620       H  0.32220067  0.79271035  0.72577064     0.37200
C1621       C  0.48286882  0.85420625  0.64933104    -0.27100
C1622       C  0.48884263  0.83964872  0.63514292     0.02500
C1623       C  0.48116606  0.83186789  0.60507561     0.30600
C1624       C  0.46721789  0.83824011  0.58998608    -0.18900
C1625       C  0.46092691  0.85259695  0.60441348    -0.28300
C1626       C  0.46930285  0.86088496  0.63422324     0.44600
C1627       C  0.50202255  0.83190566  0.65296187     0.05800
O1628       O  0.48710622  0.81796332  0.59034105    -0.56800
H1629       H  0.46124423  0.83183982  0.56701886     0.18800
O1630       O  0.46383729  0.87501606  0.64934844    -0.63500
H1631       H  0.48840039  0.86011438  0.67260842     0.17200
C1632       C  0.52279284  0.84744841  0.66627865     0.29500
C1633       C  0.53342028  0.84009202  0.68678374    -0.24400
C1634       C  0.52338619  0.81731625  0.69485282    -0.23700
C1635       C  0.50310233  0.80161135  0.68026621     0.40900
C1636       C  0.49262324  0.80897594  0.65952202    -0.26100
O1637       O  0.53275091  0.86989359  0.65942425    -0.58000
H1638       H  0.54908297  0.85242961  0.69739723     0.16500
O1639       O  0.49292534  0.77911835  0.68686080    -0.59500
H1640       H  0.47658698  0.79683521  0.64957124     0.15000
H1641       H  0.47626532  0.89040671  0.64465680     0.46900
H1642       H  0.53050356  0.87705111  0.67792997     0.42200
H1643       H  0.49941409  0.77294814  0.67199927     0.45700
H1644       H  0.50152289  0.82817736  0.57989225     0.37200
C1645       C  0.66664213  0.18524821  0.35062553    -0.27100
C1646       C  0.67683310  0.17374888  0.33804576     0.02500
C1647       C  0.66827810  0.15101680  0.34604545     0.30600
C1648       C  0.65034458  0.14042010  0.36683741    -0.18900
C1649       C  0.64039298  0.15204080  0.37984513    -0.28300
C1650       C  0.64846674  0.17457446  0.37096811     0.44600
C1651       C  0.69691790  0.18588638  0.31776180     0.05800
O1652       O  0.67738746  0.13898357  0.33377962    -0.56800
H1653       H  0.64436809  0.12308168  0.37300782     0.18800
O1654       O  0.63899268  0.18653214  0.38232303    -0.63500
H1655       H  0.67306835  0.20277824  0.34515519     0.17200
C1656       C  0.69708742  0.19883539  0.29254004     0.29500
C1657       C  0.71662605  0.21090452  0.27474839    -0.24400
C1658       C  0.73631595  0.21042255  0.28166902    -0.23700
C1659       C  0.73589763  0.19696841  0.30649844     0.40900
C1660       C  0.71646622  0.18511011  0.32436527    -0.26100
O1661       O  0.67801668  0.19923461  0.28453246    -0.58000
H1662       H  0.71637953  0.22085415  0.25564456     0.16500
O1663       O  0.75452142  0.19562674  0.31409526    -0.59500
H1664       H  0.71683357  0.17553065  0.34387348     0.15000
H1665       H  0.62685013  0.18373538  0.36755857     0.46900
H1666       H  0.68106336  0.21453294  0.29002342     0.42200
H1667       H  0.75270017  0.18219029  0.30297728     0.45700
H1668       H  0.66974581  0.13334618  0.31367834     0.37200
C1669       C  0.51622111  0.15303411  0.40027190    -0.27100
C1670       C  0.51232403  0.14782483  0.36877798     0.02500
C1671       C  0.52207826  0.13644536  0.35444219     0.30600
C1672       C  0.53573532  0.13069867  0.37138905    -0.18900
C1673       C  0.53997306  0.13609290  0.40288582    -0.28300
C1674       C  0.52973724  0.14707673  0.41740180     0.44600
C1675       C  0.49981253  0.15601639  0.35023816     0.05800
O1676       O  0.51945592  0.13208657  0.32340361    -0.56800
H1677       H  0.54345297  0.12241529  0.35953392     0.18800
O1678       O  0.53313050  0.15247305  0.44810532    -0.63500
H1679       H  0.50893440  0.16195793  0.41151613     0.17200
C1680       C  0.47915370  0.14107373  0.33609195     0.29500
C1681       C  0.46912753  0.14924058  0.31564908    -0.24400
C1682       C  0.47953299  0.17232148  0.30888288    -0.23700
C1683       C  0.49979995  0.18728466  0.32421082     0.40900
C1684       C  0.50961575  0.17908995  0.34477903    -0.26100
O1685       O  0.46893781  0.11842002  0.34151367    -0.58000
H1686       H  0.45355464  0.13740565  0.30435770     0.16500
O1687       O  0.51026211  0.21001688  0.31926312    -0.59500
H1688       H  0.52544262  0.19077515  0.35566708     0.15000
H1689       H  0.52078613  0.13937212  0.45884115     0.46900
H1690       H  0.45993803  0.11591927  0.36047340     0.42200
H1691       H  0.52231380  0.21327039  0.30409196     0.45700
H1692       H  0.50742352  0.11614185  0.32157383     0.37200
C1693       C  0.68725100  0.19344067  0.61573123    -0.27100
C1694       C  0.66990111  0.17094181  0.61374371     0.02500
C1695       C  0.66749063  0.15601638  0.63745167     0.30600
C1696       C  0.68281192  0.16336724  0.66194175    -0.18900
C1697       C  0.70078543  0.18569561  0.66353319    -0.28300
C1698       C  0.70256616  0.20089688  0.64040105     0.44600
C1699       C  0.65542323  0.16265883  0.58587605     0.05800
O1700       O  0.65046279  0.13402240  0.63653426    -0.56800
H1701       H  0.68077085  0.15135950  0.67952813     0.18800
O1702       O  0.71972306  0.22281651  0.64087530    -0.63500
H1703       H  0.68934948  0.20510398  0.59758732     0.17200
C1704       C  0.64040563  0.17013029  0.57822441     0.29500
C1705       C  0.62682176  0.16171144  0.55182133    -0.24400
C1706       C  0.62819269  0.14602257  0.53237253    -0.23700
C1707       C  0.64348452  0.13875466  0.54012101     0.40900
C1708       C  0.65680180  0.14701024  0.56662436    -0.26100
O1709       O  0.63839266  0.18511990  0.59692753    -0.58000
H1710       H  0.61523395  0.16754418  0.54654740     0.16500
O1711       O  0.64593315  0.12388127  0.52172007    -0.59500
H1712       H  0.66844664  0.14126863  0.57208177     0.15000
H1713       H  0.71347481  0.23120900  0.65161336     0.46900
H1714       H  0.64817092  0.20002908  0.58751830     0.42200
H1715       H  0.63609749  0.10889850  0.53100900     0.45700
H1716       H  0.63709793  0.13415323  0.64486637     0.37200
C1717       C  0.48711002  0.96362524  0.48604030    -0.27100
C1718       C  0.49645447  0.98212098  0.50617636     0.02500
C1719       C  0.48997791  0.97860362  0.53747037     0.30600
C1720       C  0.47391222  0.95713427  0.54784367    -0.18900
C1721       C  0.46439081  0.93865086  0.52761845    -0.28300
C1722       C  0.47145062  0.94205915  0.49653694     0.44600
C1723       C  0.51179517  0.00517865  0.49412167     0.05800
O1724       O  0.49922212  0.99607992  0.55815312    -0.56800
H1725       H  0.46907322  0.95491166  0.57189584     0.18800
O1726       O  0.46241063  0.92461820  0.47580545    -0.63500
H1727       H  0.49151617  0.96596201  0.46184181     0.17200
C1728       C  0.53089114  0.01030890  0.47614130     0.29500
C1729       C  0.54516650  0.03243362  0.46589360    -0.24400
C1730       C  0.54063398  0.04971038  0.47309922    -0.23700
C1731       C  0.52103162  0.04425673  0.49012286     0.40900
C1732       C  0.50696172  0.02229871  0.50045672    -0.26100
O1733       O  0.53635350  0.99409468  0.46978624    -0.58000
H1734       H  0.56006559  0.03614040  0.45284921     0.16500
O1735       O  0.51544010  0.06028292  0.49710789    -0.59500
H1736       H  0.49204361  0.01860199  0.51345607     0.15000
H1737       H  0.47342839  0.91937808  0.47445648     0.46900
H1738       H  0.53264134  0.99030906  0.44772280     0.42200
H1739       H  0.50607143  0.06002338  0.47960886     0.45700
H1740       H  0.51382249  0.99759122  0.56413408     0.37200
C1741       C  0.00365050  0.82597062  0.50129444    -0.27100
C1742       C  0.99822657  0.84192272  0.51203994     0.02500
C1743       C  0.01081204  0.86423024  0.50172769     0.30600
C1744       C  0.02783888  0.87005522  0.47984581    -0.18900
C1745       C  0.03254804  0.85383356  0.46776873    -0.28300
C1746       C  0.02054727  0.83170758  0.47925038     0.44600
C1747       C  0.97759056  0.83436446  0.53058925     0.05800
O1748       O  0.00593620  0.88021113  0.51184034    -0.56800
H1749       H  0.03695620  0.88723024  0.47166558     0.18800
O1750       O  0.02451286  0.81531560  0.46827177    -0.63500
H1751       H  0.99405893  0.80872060  0.50910259     0.17200
C1752       C  0.95664984  0.81886473  0.51786228     0.29500
C1753       C  0.93704127  0.81159842  0.53495265    -0.24400
C1754       C  0.93772866  0.81948266  0.56506482    -0.23700
C1755       C  0.95874580  0.83523268  0.57783191     0.40900
C1756       C  0.97850328  0.84265428  0.56049169    -0.26100
O1757       O  0.95512405  0.81143790  0.48810382    -0.58000
H1758       H  0.92116461  0.79980909  0.52429704     0.16500
O1759       O  0.96017928  0.84373194  0.60689143    -0.59500
H1760       H  0.99454973  0.85475860  0.57043506     0.15000
H1761       H  0.01367892  0.80805999  0.45113022     0.46900
H1762       H  0.95309432  0.79617131  0.48982246     0.42200
H1763       H  0.96319846  0.83405674  0.62059634     0.45700
H1764       H  0.99491616  0.87983643  0.49681884     0.37200
C1765       C  0.15470253  0.97823755  0.43548770    -0.27100
C1766       C  0.15968758  0.97791674  0.46674300     0.02500
C1767       C  0.15060756  0.95715684  0.48203766     0.30600
C1768       C  0.13616411  0.93720095  0.46633839    -0.18900
C1769       C  0.13052757  0.93752305  0.43529594    -0.28300
C1770       C  0.14044126  0.95825747  0.41967756     0.44600
C1771       C  0.17227553  0.99934017  0.48401522     0.05800
O1772       O  0.15441852  0.95636283  0.51289776    -0.56800
H1773       H  0.12877226  0.92149353  0.47886972     0.18800
O1774       O  0.13605319  0.95928027  0.38912275    -0.63500
H1775       H  0.16161021  0.99411338  0.42345461     0.17200
C1776       C  0.19224559  0.00508388  0.50000921     0.29500
C1777       C  0.20213513  0.02412650  0.51914952    -0.24400
C1778       C  0.19228799  0.03761219  0.52270510    -0.23700
C1779       C  0.17304204  0.03253529  0.50512982     0.40900
C1780       C  0.16324249  0.01356346  0.48603389    -0.26100
O1781       O  0.20179428  0.99179981  0.49783843    -0.58000
H1782       H  0.21697113  0.02775246  0.53225732     0.16500
O1783       O  0.16315313  0.04551889  0.50721724    -0.59500
H1784       H  0.14797121  0.00943852  0.47365922     0.15000
H1785       H  0.14741685  0.95721073  0.37779750     0.46900
H1786       H  0.21390396  0.99921496  0.48230272     0.42200
H1787       H  0.17066717  0.05727016  0.49126510     0.45700
H1788       H  0.16508636  0.95069448  0.51411465     0.37200
C1789       C  0.36573468  0.83738274  0.12393868    -0.27100
C1790       C  0.36777064  0.85320872  0.14605411     0.02500
C1791       C  0.38838432  0.87326942  0.14950590     0.30600
C1792       C  0.40678524  0.87711946  0.13141177    -0.18900
C1793       C  0.40508063  0.86110222  0.10965861    -0.28300
C1794       C  0.38419043  0.84117006  0.10579681     0.44600
C1795       C  0.34901374  0.84770397  0.16744977     0.05800
O1796       O  0.39087197  0.88894982  0.17112161    -0.56800
H1797       H  0.42257161  0.89260968  0.13483983     0.18800
O1798       O  0.38185507  0.82480675  0.08552696    -0.63500
H1799       H  0.34997980  0.82170795  0.12147059     0.17200
C1800       C  0.32900772  0.84654599  0.15748044     0.29500
C1801       C  0.31113351  0.84018768  0.17818990    -0.24400
C1802       C  0.31278845  0.83417683  0.20851482    -0.23700
C1803       C  0.33293677  0.83561666  0.21846117     0.40900
C1804       C  0.35097622  0.84267731  0.19810908    -0.26100
O1805       O  0.32683875  0.85162832  0.12763700    -0.58000
H1806       H  0.29566178  0.83899561  0.17021607     0.16500
O1807       O  0.33520896  0.83038610  0.24820894    -0.59500
H1808       H  0.36633697  0.84357776  0.20601540     0.15000
H1809       H  0.37616756  0.82786444  0.06626205     0.46900
H1810       H  0.31969881  0.83704636  0.11651480     0.42200
H1811       H  0.33204675  0.81465588  0.24735624     0.45700
H1812       H  0.38534151  0.89813859  0.16100080     0.37200
C1813       C  0.19346154  0.72338291  0.17271208    -0.27100
C1814       C  0.18053828  0.70324714  0.18872107     0.02500
C1815       C  0.18206160  0.70310134  0.22098124     0.30600
C1816       C  0.19684569  0.72286869  0.23682239    -0.18900
C1817       C  0.21021558  0.74305182  0.22085186    -0.28300
C1818       C  0.20829212  0.74317411  0.18844115     0.44600
C1819       C  0.16774590  0.68209443  0.17118193     0.05800
O1820       O  0.16952640  0.68358775  0.23713524    -0.56800
H1821       H  0.19789401  0.72236540  0.26167075     0.18800
O1822       O  0.22118354  0.76236326  0.17177273    -0.63500
H1823       H  0.19263242  0.72356459  0.14779608     0.17200
C1824       C  0.14766013  0.67661409  0.15572159     0.29500
C1825       C  0.13719603  0.65739455  0.13687425    -0.24400
C1826       C  0.14699963  0.64393073  0.13258733    -0.23700
C1827       C  0.16674363  0.64916680  0.14895733     0.40900
C1828       C  0.17688152  0.66805496  0.16810031    -0.26100
O1829       O  0.13825932  0.68998178  0.15878988    -0.58000
H1830       H  0.12198402  0.65357831  0.12459594     0.16500
O1831       O  0.17654186  0.63614516  0.14598474    -0.59500
H1832       H  0.19235916  0.67216758  0.17989624     0.15000
H1833       H  0.23452635  0.76147459  0.16520847     0.46900
H1834       H  0.14460864  0.70092210  0.14164742     0.42200
H1835       H  0.16925234  0.62430541  0.16187812     0.45700
H1836       H  0.15493136  0.68278625  0.24095871     0.37200
C1837       C  0.30538236  0.80422119  0.40244071    -0.27100
C1838       C  0.32801438  0.82119293  0.40091876     0.02500
C1839       C  0.33639675  0.83350467  0.37355158     0.30600
C1840       C  0.32209144  0.82905201  0.34830875    -0.18900
C1841       C  0.29925389  0.81240713  0.34992512    -0.28300
C1842       C  0.29101441  0.79973251  0.37716553     0.44600
C1843       C  0.34206612  0.82792087  0.42902480     0.05800
O1844       O  0.35850929  0.85012260  0.37146343    -0.56800
H1845       H  0.32882176  0.83888744  0.32753358     0.18800
O1846       O  0.26864349  0.78408337  0.38012488    -0.63500
H1847       H  0.29865486  0.79500843  0.42367123     0.17200
C1848       C  0.34517822  0.84665701  0.44604124     0.29500
C1849       C  0.35915988  0.85377616  0.47187274    -0.24400
C1850       C  0.37028998  0.84240870  0.48143546    -0.23700
C1851       C  0.36658466  0.82311150  0.46487249     0.40900
C1852       C  0.35258759  0.81604818  0.43875506    -0.26100
O1853       O  0.33489083  0.85840205  0.43719780    -0.58000
H1854       H  0.36152187  0.86852625  0.48419740     0.16500
O1855       O  0.37659090  0.81112349  0.47379556    -0.59500
H1856       H  0.35009845  0.80143553  0.42592749     0.15000
H1857       H  0.26761760  0.76937442  0.37642875     0.46900
H1858       H  0.32011069  0.85090957  0.44774783     0.42200
H1859       H  0.36613491  0.80008401  0.48901071     0.45700
H1860       H  0.35867167  0.86425106  0.37662515     0.37200
C1861       C  0.16531197  0.86523732  0.33595652    -0.27100
C1862       C  0.16197091  0.84361941  0.34064546     0.02500
C1863       C  0.14285674  0.82793173  0.35732997     0.30600
C1864       C  0.12737662  0.83387731  0.36845865    -0.18900
C1865       C  0.13040765  0.85533554  0.36294855    -0.28300
C1866       C  0.14974571  0.87110418  0.34664586     0.44600
C1867       C  0.17871063  0.83784111  0.32841211     0.05800
O1868       O  0.13893696  0.80661362  0.36252877    -0.56800
H1869       H  0.11273256  0.82148599  0.38092677     0.18800
O1870       O  0.15396564  0.89254665  0.34158468    -0.63500
H1871       H  0.18019443  0.87777401  0.32406225     0.17200
C1872       C  0.18599525  0.84212137  0.29747290     0.29500
C1873       C  0.20201164  0.83678628  0.28666600    -0.24400
C1874       C  0.21093555  0.82701663  0.30623212    -0.23700
C1875       C  0.20368510  0.82285881  0.33720534     0.40900
C1876       C  0.18784538  0.82832757  0.34800615    -0.26100
O1877       O  0.17671981  0.85047092  0.27725304    -0.58000
H1878       H  0.20705087  0.83982861  0.26270640     0.16500
O1879       O  0.21193621  0.81341192  0.35726119    -0.59500
H1880       H  0.18282340  0.82528163  0.37197009     0.15000
H1881       H  0.14846236  0.89232095  0.32040988     0.46900
H1882       H  0.18868919  0.86616900  0.27316583     0.42200
H1883       H  0.22571622  0.82624241  0.36609445     0.45700
H1884       H  0.13105931  0.79791165  0.34383376     0.37200
C1885       C  0.67239820  0.51575482  0.33284524    -0.27100
C1886       C  0.66225426  0.49274666  0.33944333     0.02500
C1887       C  0.67025884  0.47988349  0.32488685     0.30600
C1888       C  0.68783487  0.48989125  0.30353137    -0.18900
C1889       C  0.69783212  0.51286815  0.29622907    -0.28300
C1890       C  0.69015503  0.52589115  0.31159381     0.44600
C1891       C  0.64160087  0.48159786  0.35844664     0.05800
O1892       O  0.66015523  0.45721394  0.33015048    -0.56800
H1893       H  0.69328176  0.47942030  0.29212909     0.18800
O1894       O  0.69919593  0.54829154  0.30518226    -0.63500
H1895       H  0.66613138  0.52575137  0.34362580     0.17200
C1896       C  0.64204347  0.47639983  0.38966745     0.29500
C1897       C  0.62180506  0.46416447  0.40611900    -0.24400
C1898       C  0.60092063  0.45701190  0.39176001    -0.23700
C1899       C  0.60076643  0.46256380  0.36043864     0.40900
C1900       C  0.62093627  0.47482233  0.34425598    -0.26100
O1901       O  0.66209598  0.48275241  0.40405679    -0.58000
H1902       H  0.62245686  0.46010103  0.43003251     0.16500
O1903       O  0.58097177  0.45577974  0.34506864    -0.59500
H1904       H  0.62041363  0.47858855  0.32015817     0.15000
H1905       H  0.71160939  0.55621532  0.32020308     0.46900
H1906       H  0.66749935  0.49829616  0.41145279     0.42200
H1907       H  0.57718362  0.44123460  0.33529819     0.45700
H1908       H  0.66910505  0.45563747  0.34678794     0.37200
C1909       C  0.82422670  0.48073268  0.32367102    -0.27100
C1910       C  0.83707009  0.50136578  0.30874473     0.02500
C1911       C  0.86014395  0.51456029  0.31559539     0.30600
C1912       C  0.86980327  0.50746774  0.33810417    -0.18900
C1913       C  0.85668354  0.48724294  0.35413088    -0.28300
C1914       C  0.83376100  0.47363738  0.34616756     0.44600
C1915       C  0.82546599  0.50990409  0.28903027     0.05800
O1916       O  0.87323836  0.53469141  0.30102891    -0.56800
H1917       H  0.88744897  0.51811916  0.34358534     0.18800
O1918       O  0.82038315  0.45338868  0.36032928    -0.63500
H1919       H  0.80641284  0.47047927  0.31888307     0.17200
C1920       C  0.81167271  0.49711468  0.26432518     0.29500
C1921       C  0.79796737  0.50384968  0.24943636    -0.24400
C1922       C  0.79759580  0.52318373  0.25909507    -0.23700
C1923       C  0.81241152  0.53660440  0.28275681     0.40900
C1924       C  0.82606864  0.52985933  0.29751834    -0.26100
O1925       O  0.81153173  0.47804294  0.25463312    -0.58000
H1926       H  0.78708332  0.49348487  0.23096396     0.16500
O1927       O  0.81303548  0.55585429  0.29266609    -0.59500
H1928       H  0.83645082  0.53977437  0.31666336     0.15000
H1929       H  0.81213606  0.45651417  0.37652329     0.46900
H1930       H  0.79705175  0.46532366  0.26195726     0.42200
H1931       H  0.82525249  0.56815215  0.28060311     0.45700
H1932       H  0.87729550  0.53073285  0.28098031     0.37200
C1933       C  0.00082834  0.81099833  0.99579013    -0.27100
C1934       C  0.00388375  0.83000239  0.97974037     0.02500
C1935       C  0.98923877  0.83826980  0.98547607     0.30600
C1936       C  0.97228035  0.82798407  0.00766108    -0.18900
C1937       C  0.96952066  0.80929234  0.02440645    -0.28300
C1938       C  0.98373266  0.80055374  0.01781763     0.44600
C1939       C  0.02390675  0.84269526  0.95988999     0.05800
O1940       O  0.99193020  0.85694174  0.97037725    -0.56800
H1941       H  0.96152764  0.83496406  0.01220307     0.18800
O1942       O  0.98203516  0.78273763  0.03410631    -0.63500
H1943       H  0.01215444  0.80461595  0.99180416     0.17200
C1944       C  0.04546641  0.85305005  0.97303550     0.29500
C1945       C  0.06428363  0.86675813  0.95512374    -0.24400
C1946       C  0.06219653  0.87037596  0.92374049    -0.23700
C1947       C  0.04063187  0.85925855  0.91018475     0.40900
C1948       C  0.02163344  0.84571956  0.92837382    -0.26100
O1949       O  0.04819632  0.85096982  0.00391181    -0.58000
H1950       H  0.08059088  0.87504339  0.96623462     0.16500
O1951       O  0.03786345  0.86174054  0.87946515    -0.59500
H1952       H  0.00508747  0.83771647  0.91796080     0.15000
H1953       H  0.97269116  0.76934186  0.02111316     0.46900
H1954       H  0.05281618  0.83948735  0.00532210     0.42200
H1955       H  0.03769052  0.84874947  0.86919981     0.45700
H1956       H  0.00288745  0.86991202  0.98293517     0.37200
C1957       C  0.81345725  0.81240648  0.00050250    -0.27100
C1958       C  0.83634465  0.82483163  0.00823914     0.02500
C1959       C  0.84965074  0.84651013  0.99605030     0.30600
C1960       C  0.84012874  0.85547926  0.97638350    -0.18900
C1961       C  0.81722581  0.84319790  0.96844709    -0.28300
C1962       C  0.80382691  0.82144197  0.98083708     0.44600
C1963       C  0.84677889  0.81488140  0.02764496     0.05800
O1964       O  0.87230315  0.85858054  0.00193859    -0.56800
H1965       H  0.85091419  0.87209364  0.96699898     0.18800
O1966       O  0.78138649  0.80884546  0.97391836    -0.63500
H1967       H  0.80307466  0.79562631  0.00962728     0.17200
C1968       C  0.85727935  0.82496089  0.05571679     0.29500
C1969       C  0.87018056  0.81757148  0.07125771    -0.24400
C1970       C  0.87281125  0.80003426  0.05924502    -0.23700
C1971       C  0.86107244  0.78904398  0.03202764     0.40900
C1972       C  0.84812751  0.79645055  0.01659000    -0.26100
O1973       O  0.85567693  0.84259407  0.06759135    -0.58000
H1974       H  0.87873722  0.82611265  0.09225824     0.16500
O1975       O  0.86237447  0.77128208  0.01996680    -0.59500
H1976       H  0.83995760  0.78842420  0.99513502     0.15000
H1977       H  0.78046694  0.79905166  0.95650525     0.46900
H1978       H  0.84112535  0.83557815  0.07871636     0.42200
H1979       H  0.87407326  0.77786789  0.00374468     0.45700
H1980       H  0.87432552  0.87041750  0.01682746     0.37200
C1981       C  0.00301601  0.82562689  0.20425341    -0.27100
C1982       C  0.99866602  0.83735330  0.22713874     0.02500
C1983       C  0.97987211  0.84014194  0.22401195     0.30600
C1984       C  0.96540037  0.83075576  0.19863863    -0.18900
C1985       C  0.96919428  0.81819952  0.17623007    -0.28300
C1986       C  0.98852364  0.81608390  0.17901792     0.44600
C1987       C  0.01264085  0.84469937  0.25547863     0.05800
O1988       O  0.97511763  0.85140780  0.24614370    -0.56800
H1989       H  0.95078377  0.83272934  0.19703940     0.18800
O1990       O  0.99355505  0.80485488  0.15714173    -0.63500
H1991       H  0.01748042  0.82342645  0.20634780     0.17200
C1992       C  0.01101500  0.82862647  0.27676925     0.29500
C1993       C  0.02419239  0.83538687  0.30347392    -0.24400
C1994       C  0.03954991  0.85821785  0.30943365    -0.23700
C1995       C  0.04128966  0.87437241  0.28786679     0.40900
C1996       C  0.02771595  0.86755477  0.26129786    -0.26100
O1997       O  0.99612841  0.80621052  0.27197762    -0.58000
H1998       H  0.02240803  0.82257621  0.31951865     0.16500
O1999       O  0.05617241  0.89680975  0.29239127    -0.59500
H2000       H  0.02918565  0.88009640  0.24498262     0.15000
H2001       H  0.98784185  0.78956055  0.16558082     0.46900
H2002       H  0.00500911  0.80027838  0.26183226     0.42200
H2003       H  0.07003892  0.89978826  0.28137790     0.45700
H2004       H  0.96572438  0.83982790  0.26153070     0.37200
C2005       C  0.85917438  0.67535177  0.13508502    -0.27100
C2006       C  0.84011702  0.67229815  0.15126538     0.02500
C2007       C  0.83763283  0.69112410  0.15675854     0.30600
C2008       C  0.85416704  0.71248325  0.14687630    -0.18900
C2009       C  0.87331980  0.71563901  0.13084832    -0.28300
C2010       C  0.87562702  0.69673599  0.12481340     0.44600
C2011       C  0.82326529  0.64964484  0.16310873     0.05800
O2012       O  0.81900785  0.68884230  0.17165352    -0.56800
H2013       H  0.85181142  0.72664126  0.15151628     0.18800
O2014       O  0.89398398  0.69894216  0.10926824    -0.63500
H2015       H  0.86156766  0.66116999  0.13091195     0.17200
C2016       C  0.81349943  0.63061486  0.14370021     0.29500
C2017       C  0.79812355  0.60942090  0.15567144    -0.24400
C2018       C  0.79204410  0.60671315  0.18698423    -0.23700
C2019       C  0.80155076  0.62582519  0.20627466     0.40900
C2020       C  0.81702071  0.64698091  0.19433715    -0.26100
O2021       O  0.81820562  0.63271733  0.11276292    -0.58000
H2022       H  0.79086216  0.59504561  0.14027967     0.16500
O2023       O  0.79617692  0.62402615  0.23695774    -0.59500
H2024       H  0.82448007  0.66134774  0.20973163     0.15000
H2025       H  0.90511762  0.70132237  0.12547587     0.46900
H2026       H  0.82797122  0.62613448  0.10952672     0.42200
H2027       H  0.80760393  0.62165210  0.24743751     0.45700
H2028       H  0.80717275  0.68367839  0.15561213     0.37200
C2029       C  0.70358402  0.51440682  0.77305668    -0.27100
C2030       C  0.70496151  0.52422518  0.80193837     0.02500
C2031       C  0.72605475  0.54085882  0.81303414     0.30600
C2032       C  0.74547590  0.54682091  0.79576964    -0.18900
C2033       C  0.74426537  0.53635262  0.76732763    -0.28300
C2034       C  0.72296554  0.52031560  0.75577647     0.44600
C2035       C  0.68467533  0.51496592  0.82165002     0.05800
O2036       O  0.72802404  0.55014808  0.84168811    -0.56800
H2037       H  0.76160997  0.55913750  0.80526185     0.18800
O2038       O  0.72084245  0.51017125  0.72775602    -0.63500
H2039       H  0.68740938  0.50158455  0.76427479     0.17200
C2040       C  0.67537304  0.52803567  0.83164514     0.29500
C2041       C  0.65635419  0.51851998  0.85082185    -0.24400
C2042       C  0.64647063  0.49600366  0.86046396    -0.23700
C2043       C  0.65585436  0.48300243  0.85007096     0.40900
C2044       C  0.67459293  0.49245766  0.83069969    -0.26100
O2045       O  0.68477437  0.55008843  0.82295159    -0.58000
H2046       H  0.64957599  0.52889446  0.85856818     0.16500
O2047       O  0.64678816  0.46092101  0.85845804    -0.59500
H2048       H  0.68157403  0.48221437  0.82310732     0.15000
H2049       H  0.71971356  0.49555757  0.73250662     0.46900
H2050       H  0.67850064  0.54963545  0.80224979     0.42200
H2051       H  0.65610847  0.46108176  0.87597041     0.45700
H2052       H  0.73012998  0.56528424  0.83788481     0.37200
C2053       C  0.51774001  0.37598618  0.85521072    -0.27100
C2054       C  0.52112330  0.35800897  0.86222380     0.02500
C2055       C  0.53677591  0.36103214  0.88539494     0.30600
C2056       C  0.54942928  0.38200635  0.89995357    -0.18900
C2057       C  0.54670641  0.40027647  0.89191351    -0.28300
C2058       C  0.53014040  0.39681993  0.86997347     0.44600
C2059       C  0.50955909  0.33700437  0.84341723     0.05800
O2060       O  0.54016516  0.34373421  0.89357960    -0.56800
H2061       H  0.56183324  0.38411685  0.91698800     0.18800
O2062       O  0.52624073  0.41384192  0.86212857    -0.63500
H2063       H  0.50592378  0.37413752  0.83739257     0.17200
C2064       C  0.48626407  0.32615129  0.83741238     0.29500
C2065       C  0.47639348  0.30830352  0.81622867    -0.24400
C2066       C  0.48938417  0.30081184  0.80075303    -0.23700
C2067       C  0.51247100  0.31088557  0.80812343     0.40900
C2068       C  0.52230930  0.32878807  0.82913244    -0.26100
O2069       O  0.47303872  0.33314823  0.85166763    -0.58000
H2070       H  0.45860550  0.30069535  0.81134991     0.16500
O2071       O  0.52567713  0.30343400  0.79492796    -0.59500
H2072       H  0.54022578  0.33684329  0.83332921     0.15000
H2073       H  0.51501680  0.41294346  0.87727980     0.46900
H2074       H  0.46914600  0.32548679  0.87190850     0.42200
H2075       H  0.53372157  0.31405189  0.77791159     0.45700
H2076       H  0.52830132  0.33490904  0.90893728     0.37200
C2077       C  0.66025398  0.50895875  0.04865027    -0.27100
C2078       C  0.66285181  0.49192661  0.06204346     0.02500
C2079       C  0.65198776  0.47032057  0.04891457     0.30600
C2080       C  0.63829728  0.46582489  0.02293780    -0.18900
C2081       C  0.63552808  0.48282438  0.00943141    -0.28300
C2082       C  0.64682416  0.50461693  0.02247968     0.44600
C2083       C  0.67649315  0.49685188  0.09024344     0.05800
O2084       O  0.65404519  0.45333358  0.06197767    -0.56800
H2085       H  0.62984618  0.44899148  0.01334404     0.18800
O2086       O  0.64468403  0.52176415  0.01014873    -0.63500
H2087       H  0.66861274  0.52567623  0.05865295     0.17200
C2088       C  0.69816920  0.49962609  0.08925234     0.29500
C2089       C  0.71129164  0.50559262  0.11603006    -0.24400
C2090       C  0.70314823  0.50924156  0.14385262    -0.23700
C2091       C  0.68110298  0.50569075  0.14493314     0.40900
C2092       C  0.66802563  0.49968781  0.11819238    -0.26100
O2093       O  0.70687851  0.49716225  0.06205750    -0.58000
H2094       H  0.72819635  0.50829578  0.11472364     0.16500
O2095       O  0.67225464  0.50829947  0.17191598    -0.59500
H2096       H  0.65128433  0.49744572  0.11916942     0.15000
H2097       H  0.63136771  0.52081987  0.02045493     0.46900
H2098       H  0.71358714  0.51205203  0.05191390     0.42200
H2099       H  0.66570143  0.49352537  0.18236529     0.45700
H2100       H  0.66656785  0.45327910  0.05076031     0.37200
C2101       C  0.29541022  0.47660285  0.18173428    -0.27100
C2102       C  0.31456027  0.49770079  0.18652538     0.02500
C2103       C  0.31471736  0.51122859  0.21105360     0.30600
C2104       C  0.29569258  0.50380061  0.22990210    -0.18900
C2105       C  0.27616900  0.48291661  0.22457550    -0.28300
C2106       C  0.27636895  0.46915721  0.20042695     0.44600
C2107       C  0.33369635  0.50582334  0.16466504     0.05800
O2108       O  0.33322423  0.53193662  0.21640117    -0.56800
H2109       H  0.29603556  0.51471323  0.24819945     0.18800
O2110       O  0.25780718  0.44868164  0.19412011    -0.63500
H2111       H  0.29499937  0.46607675  0.16283069     0.17200
C2112       C  0.34635659  0.49499592  0.16192438     0.29500
C2113       C  0.36361447  0.50227498  0.13991768    -0.24400
C2114       C  0.36839948  0.52023911  0.12003362    -0.23700
C2115       C  0.35550601  0.53098169  0.12287909     0.40900
C2116       C  0.33852825  0.52386321  0.14515812    -0.26100
O2117       O  0.34237113  0.47767417  0.18127289    -0.58000
H2118       H  0.37327264  0.49382232  0.13846194     0.16500
O2119       O  0.35930541  0.54852538  0.10408557    -0.59500
H2120       H  0.32875599  0.53220182  0.14680164     0.15000
H2121       H  0.25985141  0.43769352  0.20633050     0.46900
H2122       H  0.33224073  0.46378365  0.16964252     0.42200
H2123       H  0.34863102  0.54156326  0.08671425     0.45700
H2124       H  0.34331890  0.52896791  0.22930157     0.37200
C2125       C  0.47762906  0.61858075  0.16020640    -0.27100
C2126       C  0.49090445  0.64011186  0.14783623     0.02500
C2127       C  0.49264636  0.64285214  0.11567732     0.30600
C2128       C  0.48049325  0.62422644  0.09630069    -0.18900
C2129       C  0.46682713  0.60268287  0.10867888    -0.28300
C2130       C  0.46580909  0.59991364  0.14094804     0.44600
C2131       C  0.50144855  0.65969502  0.16883790     0.05800
O2132       O  0.50573709  0.66372939  0.10303050    -0.56800
H2133       H  0.48159904  0.62665427  0.07158397     0.18800
O2134       O  0.45219196  0.57927370  0.15398750    -0.63500
H2135       H  0.47610364  0.61631766  0.18495799     0.17200
C2136       C  0.48796081  0.66566422  0.18612717     0.29500
C2137       C  0.49787850  0.68376723  0.20667966    -0.24400
C2138       C  0.52132666  0.69604499  0.21082972    -0.23700
C2139       C  0.53485037  0.69005843  0.19329112     0.40900
C2140       C  0.52486775  0.67210340  0.17228880    -0.26100
O2141       O  0.46504092  0.65412754  0.18258121    -0.58000
H2142       H  0.48706340  0.68802350  0.21964622     0.16500
O2143       O  0.55777475  0.70150410  0.19651122    -0.59500
H2144       H  0.53538430  0.66756857  0.15909657     0.15000
H2145       H  0.46228544  0.57332086  0.15888542     0.46900
H2146       H  0.45922070  0.64315950  0.19971172     0.42200
H2147       H  0.56088574  0.69339990  0.21285471     0.45700
H2148       H  0.49577594  0.67021640  0.10145199     0.37200
C2149       C  0.31761920  0.52087815  0.89539842    -0.27100
C2150       C  0.33640325  0.51802846  0.89563095     0.02500
C2151       C  0.33900668  0.50549982  0.87200896     0.30600
C2152       C  0.32264598  0.49557694  0.84893423    -0.18900
C2153       C  0.30356397  0.49808190  0.84882379    -0.28300
C2154       C  0.30130862  0.51110358  0.87223438     0.44600
C2155       C  0.35158341  0.52566739  0.92259917     0.05800
O2156       O  0.35673714  0.50167296  0.87241831    -0.56800
H2157       H  0.32478346  0.48562347  0.83130681     0.18800
O2158       O  0.28297817  0.51394292  0.87322792    -0.63500
H2159       H  0.31531883  0.53025970  0.91373510     0.17200
C2160       C  0.37445486  0.54224707  0.92022354     0.29500
C2161       C  0.38863275  0.54753583  0.94591539    -0.24400
C2162       C  0.38022088  0.53620384  0.97391894    -0.23700
C2163       C  0.35716804  0.52018928  0.97640605     0.40900
C2164       C  0.34303990  0.51520709  0.95096436    -0.26100
O2165       O  0.38312874  0.55298349  0.89280564    -0.58000
H2166       H  0.40631542  0.55991049  0.94365787     0.16500
O2167       O  0.34820544  0.50955775  0.00382217    -0.59500
H2168       H  0.32542315  0.50258353  0.95313193     0.15000
H2169       H  0.27184632  0.50153100  0.88630770     0.46900
H2170       H  0.38326198  0.56742636  0.89447739     0.42200
H2171       H  0.34688217  0.49458042  0.00184205     0.45700
H2172       H  0.36785045  0.51267365  0.85776365     0.37200
C2173       C  0.50126317  0.53174025  0.98216051    -0.27100
C2174       C  0.49632011  0.50935331  0.98443289     0.02500
C2175       C  0.47585378  0.49351218  0.99838905     0.30600
C2176       C  0.46155376  0.50035854  0.01133178    -0.18900
C2177       C  0.46680009  0.52285810  0.00981109    -0.28300
C2178       C  0.48658107  0.53844828  0.99412583     0.44600
C2179       C  0.51314582  0.50294677  0.97423492     0.05800
O2180       O  0.46969551  0.47123703  0.99971836    -0.56800
H2181       H  0.44623167  0.48794179  0.02251941     0.18800
O2182       O  0.49233950  0.56056464  0.99153772    -0.63500
H2183       H  0.51692414  0.54432206  0.97191661     0.17200
C2184       C  0.52408703  0.50943199  0.94540546     0.29500
C2185       C  0.53984483  0.50305093  0.93690606    -0.24400
C2186       C  0.54513045  0.49026747  0.95678562    -0.23700
C2187       C  0.53439383  0.48412776  0.98577750     0.40900
C2188       C  0.51874482  0.49050543  0.99420909    -0.26100
O2189       O  0.51876010  0.52110701  0.92480888    -0.58000
H2190       H  0.54772930  0.50791437  0.91447016     0.16500
O2191       O  0.53885268  0.47168234  0.00613863    -0.59500
H2192       H  0.51107785  0.48583019  0.01679355     0.15000
H2193       H  0.48665940  0.56173450  0.97104186     0.46900
H2194       H  0.53212478  0.53643083  0.92410730     0.42200
H2195       H  0.55118869  0.48286017  0.01933866     0.45700
H2196       H  0.46161001  0.46461232  0.98013756     0.37200
loop_ 
_geom_bond_atom_site_label_1 
_geom_bond_atom_site_label_2 
_geom_bond_distance 
_geom_bond_site_symmetry_2 
_ccdc_geom_bond_type 
O1            C4   1.270       .  A
O1           Cd6   2.476       .  S
C2           O11   1.265   1_556  A
C2            O7   1.270   1_556  A
C2         C2162   1.475       .  S
O3            C9   1.272       .  A
O3           Cd6   2.508       .  S
C4           O12   1.266       .  A
C4         C2129   1.479       .  S
C5           O10   1.274       .  A
C5            O8   1.266       .  A
C5         C2114   1.494       .  S
Cd6          O13   2.449       .  S
Cd6          O12   2.430       .  S
Cd6          O11   2.406       .  S
Cd6           O7   2.486       .  S
Cd6          O10   2.512       .  S
Cd6           O8   2.436       .  S
C9           O13   1.264       .  A
C9         C2177   1.491       .  S
O14          C17   1.267       .  A
O14         Cd19   2.497       .  S
C15          O24   1.265       .  A
C15          O20   1.267       .  A
C15        C2081   1.483   1_556  S
O16          C22   1.268       .  A
O16         Cd19   2.509       .  S
C17          O25   1.266       .  A
C17        C2057   1.488       .  S
C18          O23   1.269       .  A
C18          O21   1.265       .  A
C18        C2186   1.493       .  S
Cd19         O26   2.435       .  S
Cd19         O25   2.458       .  S
Cd19         O24   2.456       .  S
Cd19         O20   2.477       .  S
Cd19         O23   2.507       .  S
Cd19         O21   2.460       .  S
C22          O26   1.263       .  A
C22        C2042   1.487       .  S
O27          C30   1.270       .  A
O27         Cd32   2.483       .  S
C28          O37   1.264       .  A
C28          O33   1.269       .  A
C28        C1985   1.491       .  S
O29          C35   1.269       .  A
O29         Cd32   2.510       .  S
C30          O38   1.265       .  A
C30        C1970   1.487       .  S
C31          O36   1.270       .  A
C31          O34   1.265       .  A
C31        C1937   1.485       .  S
Cd32         O39   2.456       .  S
Cd32         O38   2.443       .  S
Cd32         O37   2.462       .  S
Cd32         O33   2.507       .  S
Cd32         O36   2.490       .  S
Cd32         O34   2.449       .  S
C35          O39   1.265       .  A
C35        C2009   1.489       .  S
O40          C43   1.269       .  A
O40         Cd45   2.480       .  S
C41          O50   1.265       .  A
C41          O46   1.269       .  A
C41        C2090   1.477       .  S
O42          C48   1.270       .  A
O42         Cd45   2.500       .  S
C43          O51   1.265       .  A
C43        C1922   1.484       .  S
C44          O49   1.269       .  A
C44          O47   1.264       .  A
C44        C2018   1.487       .  S
Cd45         O52   2.449       .  S
Cd45         O51   2.435       .  S
Cd45         O50   2.430       .  S
Cd45         O46   2.479       .  S
Cd45         O49   2.493       .  S
Cd45         O47   2.454       .  S
C48          O52   1.266       .  A
C48        C1889   1.491       .  S
O53          C56   1.268       .  A
O53         Cd58   2.486       .  S
C54          O63   1.269       .  A
C54          O59   1.266       .  A
C54        C1841   1.483       .  S
O55          C61   1.265       .  A
O55         Cd58   2.411       .  S
C56          O64   1.263       .  A
C56        C1817   1.484       .  S
C57          O62   1.269       .  A
C57          O60   1.262       .  A
C57        C1874   1.487       .  S
Cd58         O65   2.492       .  S
Cd58         O64   2.453       .  S
Cd58         O63   2.490       .  S
Cd58         O59   2.454       .  S
Cd58         O62   2.513       .  S
Cd58         O60   2.441       .  S
C61          O65   1.271       .  A
C61        C1802   1.472       .  S
O66          C69   1.271       .  A
O66         Cd71   2.469       .  S
C67          O76   1.266       .  A
C67          O72   1.269       .  A
C67        C1994   1.492       .  S
O68          C74   1.271       .  A
O68         Cd71   2.507       .  S
C69          O77   1.266       .  A
C69        C1769   1.483       .  S
C70          O75   1.271       .  A
C70          O73   1.265       .  A
C70        C1745   1.486       .  S
Cd71         O78   2.426       .  S
Cd71         O77   2.435       .  S
Cd71         O76   2.453       .  S
Cd71         O72   2.510       .  S
Cd71         O75   2.496       .  S
Cd71         O73   2.442       .  S
C74          O78   1.264       .  A
C74        C1865   1.488       .  S
O79          C82   1.270       .  A
O79         Cd84   2.510       .  S
C80          O89   1.266       .  A
C80          O85   1.271       .  A
C80        C1673   1.489       .  S
O81          C87   1.271       .  A
O81         Cd84   2.490       .  S
C82          O90   1.264       .  A
C82        C1706   1.492       .  S
C83          O88   1.270       .  A
C83          O86   1.264       .  A
C83        C1730   1.490       .  S
Cd84         O91   2.442       .  S
Cd84         O90   2.450       .  S
Cd84         O89   2.441       .  S
Cd84         O85   2.497       .  S
Cd84         O88   2.513       .  S
Cd84         O86   2.436       .  S
C87          O91   1.265       .  A
C87        C1649   1.488       .  S
O92          C95   1.270       .  A
O92         Cd97   2.496       .  S
C93         O102   1.265       .  A
C93          O98   1.270       .  A
C93        C1850   1.486       .  S
O94         C100   1.266       .  A
O94         Cd97   2.441       .  S
C95         O103   1.264       .  A
C95        C1625   1.486       .  S
C96         O101   1.269       .  A
C96          O99   1.264       .  A
C96        C1721   1.489       .  S
Cd97        O104   2.499       .  S
Cd97        O103   2.426       .  S
Cd97        O102   2.430       .  S
Cd97         O98   2.501       .  S
Cd97        O101   2.508       .  S
Cd97         O99   2.455       .  S
C100        O104   1.270       .  A
C100       C1610   1.490       .  S
O105        C108   1.271       .  A
O105       Cd110   2.472       .  S
C106        O115   1.265       .  A
C106        O111   1.270       .  A
C106       C1553   1.490       .  S
O107        C113   1.272       .  A
O107       Cd110   2.505       .  S
C108        O116   1.267       .  A
C108       C1538   1.485       .  S
C109        O114   1.271       .  A
C109        O112   1.264       .  A
C109       C1577   1.489       .  S
Cd110       O117   2.443       .  S
Cd110       O116   2.445       .  S
Cd110       O115   2.446       .  S
Cd110       O111   2.504       .  S
Cd110       O114   2.508       .  S
Cd110       O112   2.437       .  S
C113        O117   1.265       .  A
C113       C1505   1.488       .  S
O118        C121   1.271       .  A
O118       Cd123   2.508       .  S
C119        O128   1.264       .  A
C119        O124   1.271       .  A
C119       C1481   1.490       .  S
O120        C126   1.271       .  A
O120       Cd123   2.497       .  S
C121        O129   1.266       .  A
C121       C1697   1.492       .  S
C122        O127   1.269       .  A
C122        O125   1.265       .  A
C122       C1586   1.488       .  S
Cd123       O130   2.418       .  S
Cd123       O129   2.450       .  S
Cd123       O128   2.440       .  S
Cd123       O124   2.508       .  S
Cd123       O127   2.503       .  S
Cd123       O125   2.451       .  S
C126        O130   1.264       .  A
C126       C1457   1.486       .  S
O131        C134   1.269       .  A
O131       Cd136   2.480       .  S
C132        O141   1.266       .  A
C132        O137   1.271       .  A
C132       C1409   1.485       .  S
O133        C139   1.271       .  A
O133       Cd136   2.489       .  S
C134        O142   1.266       .  A
C134       C2153   1.486       .  S
C135        O140   1.270       .  A
C135        O138   1.264       .  A
C135       C1433   1.486       .  S
Cd136       O143   2.414       .  S
Cd136       O142   2.456       .  S
Cd136       O141   2.421       .  S
Cd136       O137   2.487       .  S
Cd136       O140   2.490       .  S
Cd136       O138   2.437       .  S
C139        O143   1.264       .  A
C139       C1394   1.480       .  S
O144        C147   1.270       .  A
O144       Cd149   2.499       .  S
C145        O154   1.264       .  A
C145        O150   1.270       .  A
C145       C1562   1.489       .  S
O146        C152   1.267       .  A
O146       Cd149   2.482       .  S
C147        O155   1.264       .  A
C147       C1370   1.488       .  S
C148        O153   1.266       .  A
C148        O151   1.264       .  A
C148       C1442   1.473       .  S
Cd149       O156   2.435       .  S
Cd149       O155   2.447       .  S
Cd149       O154   2.433       .  S
Cd149       O150   2.517       .  S
Cd149       O153   2.479       .  S
Cd149       O151   2.433       .  S
C152        O156   1.264       .  A
C152       C1346   1.478       .  S
O157        C160   1.269       .  A
O157       Cd162   2.493       .  S
C158        O167   1.267       .  A
C158        O163   1.269       .  A
C158       C1289   1.479       .  S
O159        C165   1.272       .  A
O159       Cd162   2.493       .  S
C160        O168   1.265       .  A
C160       C1754   1.483       .  S
C161        O166   1.270       .  A
C161        O164   1.265       .  A
C161       C1313   1.481       .  S
Cd162       O169   2.401       .  S
Cd162       O168   2.409       .  S
Cd162       O167   2.442       .  S
Cd162       O163   2.450       .  S
Cd162       O166   2.491       .  S
Cd162       O164   2.441       .  S
C165        O169   1.262       .  A
C165       C1265   1.482       .  S
O170        C173   1.271       .  A
O170       Cd175   2.473       .  S
C171        O180   1.265       .  A
C171        O176   1.271       .  A
C171       C1241   1.490       .  S
O172        C178   1.272       .  A
O172       Cd175   2.490       .  S
C173        O181   1.266       .  A
C173       C2033   1.485       .  S
C174        O179   1.272       .  A
C174        O177   1.265       .  A
C174       C1217   1.490       .  S
Cd175       O182   2.442       .  S
Cd175       O181   2.440       .  S
Cd175       O180   2.429       .  S
Cd175       O176   2.507       .  S
Cd175       O179   2.520       .  S
Cd175       O177   2.427       .  S
C178        O182   1.265       .  A
C178       C1322   1.488       .  S
O183        C186   1.270       .  A
O183       Cd188   2.498       .  S
C184        O193   1.264       .  A
C184        O189   1.269       .  A
C184       C1178   1.489       .  S
O185        C191   1.269       .  A
O185       Cd188   2.513       .  S
C186        O194   1.266       .  A
C186       C1154   1.489       .  S
C187        O192   1.271       .  A
C187        O190   1.263       .  A
C187       C1361   1.487       .  S
Cd188       O195   2.469       .  S
Cd188       O194   2.439       .  S
Cd188       O193   2.434       .  S
Cd188       O189   2.511       .  S
Cd188       O192   2.514       .  S
Cd188       O190   2.424       .  S
C191        O195   1.266       .  A
C191       C1193   1.494       .  S
O196        C199   1.268       .  A
O196       Cd201   2.491       .  S
C197        O206   1.266       .  A
C197        O202   1.269       .  A
C197       C1121   1.488       .  S
O198        C204   1.270       .  A
O198       Cd201   2.524       .  S
C199        O207   1.266       .  A
C199       C1106   1.490       .  S
C200        O205   1.269       .  A
C200        O203   1.265       .  A
C200       C1202   1.491       .  S
Cd201       O208   2.444       .  S
Cd201       O207   2.465       .  S
Cd201       O206   2.442       .  S
Cd201       O202   2.497       .  S
Cd201       O205   2.507       .  S
Cd201       O203   2.459       .  S
C204        O208   1.263       .  A
C204       C1682   1.491       .  S
O209        C212   1.270       .  A
O209       Cd214   2.500       .  S
C210        O219   1.266       .  A
C210        O215   1.271       .  A
C210       C1049   1.480       .  S
O211        C217   1.270       .  A
O211       Cd214   2.497       .  S
C212        O220   1.265       .  A
C212       C1250   1.488       .  S
C213        O218   1.271       .  A
C213        O216   1.265       .  A
C213       C1073   1.478       .  S
Cd214       O221   2.422       .  S
Cd214       O220   2.431       .  S
Cd214       O219   2.427       .  S
Cd214       O215   2.481       .  S
Cd214       O218   2.489       .  S
Cd214       O216   2.421       .  S
C217        O221   1.264       .  A
C217       C1913   1.485       .  S
O222        C225   1.268       .  A
O222       Cd227   2.480       .  S
C223        O232   1.268       .  A
C223        O228   1.266       .  A
C223       C1034   1.488       .  S
O224        C230   1.269       .  A
O224       Cd227   2.490       .  S
C225        O233   1.264       .  A
C225       C1010   1.482       .  S
C226        O231   1.267       .  A
C226        O229   1.265       .  A
C226       C1082   1.486       .  S
Cd227       O234   2.435       .  S
Cd227       O233   2.431       .  S
Cd227       O232   2.490       .  S
Cd227       O228   2.451       .  S
Cd227       O231   2.496       .  S
Cd227       O229   2.447       .  S
C230        O234   1.264       .  A
C230       C1418   1.486       .  S
O235        C238   1.265       .  A
O235       Cd240   2.450       .  S
C236        O245   1.266       .  A
C236        O241   1.270       .  A
C236       C1514   1.485       .  S
O237        C243   1.271       .  A
O237       Cd240   2.504       .  S
C238        O246   1.268       .  A
C238       C1169   1.489       .  S
C239        O244   1.269       .  A
C239        O242   1.264       .  A
C239        C986   1.487       .  S
Cd240       O247   2.417       .  S
Cd240       O246   2.498       .  S
Cd240       O245   2.432       .  S
Cd240       O241   2.479       .  S
Cd240       O244   2.494       .  S
Cd240       O242   2.451       .  S
C243        O247   1.264       .  A
C243        C962   1.485       .  S
O248        C251   1.268       .  A
O248       Cd253   2.502       .  S
C249        O258   1.265       .  A
C249        O254   1.269       .  A
C249       C1025   1.484       .  S
O250        C256   1.271       .  A
O250       Cd253   2.496       .  S
C251        O259   1.264       .  A
C251       C2105   1.490       .  S
C252        O257   1.268       .  A
C252        O255   1.264       .  A
C252        C977   1.487       .  S
Cd253       O260   2.413       .  S
Cd253       O259   2.454       .  S
Cd253       O258   2.458       .  S
Cd253       O254   2.495       .  S
Cd253       O257   2.504       .  S
Cd253       O255   2.443       .  S
C256        O260   1.264       .  A
C256        C938   1.485       .  S
O261        C264   1.270       .  A
O261       Cd266   2.514       .  S
C262        O271   1.265       .  A
C262        O267   1.272       .  A
C262       C1793   1.484       .  S
O263        C269   1.270       .  A
O263       Cd266   2.506       .  S
C264        O272   1.264       .  A
C264        C881   1.490   1_554  S
C265        O270   1.271       .  A
C265        O268   1.265       .  A
C265        C914   1.489       .  S
Cd266       O273   2.441       .  S
Cd266       O272   2.437       .  S
Cd266       O271   2.416       .  S
Cd266       O267   2.488       .  S
Cd266       O270   2.484       .  S
Cd266       O268   2.448       .  S
C269        O273   1.265       .  A
C269        C866   1.488       .  S
O274        C277   1.269       .  A
O274       Cd279   2.488       .  S
C275        O284   1.266       .  A
C275        O280   1.268       .  A
C275       C1130   1.488   1_556  S
O276        C282   1.268       .  A
O276       Cd279   2.508       .  S
C277        O285   1.264       .  A
C277       C1466   1.485       .  S
C278        O283   1.268       .  A
C278        O281   1.265       .  A
C278        C905   1.484       .  S
Cd279       O286   2.432       .  S
Cd279       O285   2.435       .  S
Cd279       O284   2.448       .  S
Cd279       O280   2.492       .  S
Cd279       O283   2.488       .  S
Cd279       O281   2.450       .  S
C282        O286   1.263       .  A
C282        C833   1.486       .  S
O287        C290   1.269       .  A
O287       Cd292   2.474       .  S
C288        O297   1.269       .  A
C288        O293   1.264       .  A
C288       C1298   1.476       .  S
O289        C295   1.270       .  A
O289       Cd292   2.494       .  S
C290        O298   1.265       .  A
C290        C794   1.483       .  S
C291        O296   1.269       .  A
C291        O294   1.264       .  A
C291        C809   1.483       .  S
Cd292       O299   2.432       .  S
Cd292       O298   2.429       .  S
Cd292       O297   2.491       .  S
Cd292       O293   2.415       .  S
Cd292       O296   2.482       .  S
Cd292       O294   2.431       .  S
C295        O299   1.266       .  A
C295       C1961   1.487       .  S
O300        C303   1.268       .  A
O300       Cd305   2.498       .  S
C301        O310   1.266       .  A
C301        O306   1.270       .  A
C301        C770   1.483       .  S
O302        C308   1.270       .  A
O302       Cd305   2.476       .  S
C303        O311   1.264       .  A
C303        C890   1.487       .  S
C304        O309   1.268       .  A
C304        O307   1.263       .  A
C304        C818   1.477       .  S
Cd305       O312   2.440       .  S
Cd305       O311   2.446       .  S
Cd305       O310   2.440       .  S
Cd305       O306   2.463       .  S
Cd305       O309   2.498       .  S
Cd305       O307   2.432       .  S
C308        O312   1.265       .  A
C308       C1634   1.483       .  S
O313        C316   1.269       .  A
O313       Cd318   2.484       .  S
C314        O323   1.265       .  A
C314        O319   1.269       .  A
C314        C713   1.487   1_554  S
O315        C321   1.269       .  A
O315       Cd318   2.482       .  S
C316        O324   1.266       .  A
C316        C929   1.487       .  S
C317        O322   1.269       .  A
C317        O320   1.264       .  A
C317       C1826   1.479       .  S
Cd318       O325   2.436       .  S
Cd318       O324   2.446       .  S
Cd318       O323   2.447       .  S
Cd318       O319   2.491       .  S
Cd318       O322   2.500       .  S
Cd318       O320   2.421       .  S
C321        O325   1.265       .  A
C321        C737   1.484       .  S
O326        C329   1.271       .  A
O326       Cd331   2.516       .  S
C327        O336   1.265   1_554  A
C327        O332   1.272   1_554  A
C327        C689   1.491       .  S
O328        C334   1.268       .  A
O328       Cd331   2.476       .  S
C329        O337   1.264       .  A
C329       C1226   1.492       .  S
C330        O335   1.268       .  A
C330        O333   1.266       .  A
C330        C746   1.476       .  S
Cd331       O338   2.444       .  S
Cd331       O337   2.451       .  S
Cd331       O336   2.425       .  S
Cd331       O332   2.520       .  S
Cd331       O335   2.478       .  S
Cd331       O333   2.444       .  S
C334        O338   1.266       .  A
C334       C1490   1.484       .  S
O339        C342   1.268       .  A
O339       Cd344   2.486       .  S
C340        O349   1.265       .  A
C340        O345   1.268       .  A
C340        C650   1.482       .  S
O341        C347   1.269       .  A
O341       Cd344   2.492       .  S
C342        O350   1.266       .  A
C342        C953   1.484       .  S
C343        O348   1.269       .  A
C343        O346   1.264       .  A
C343        C674   1.490       .  S
Cd344       O351   2.440       .  S
Cd344       O350   2.433       .  S
Cd344       O349   2.446       .  S
Cd344       O345   2.474       .  S
Cd344       O348   2.499       .  S
Cd344       O346   2.456       .  S
C347        O351   1.264       .  A
C347       C1778   1.483       .  S
O352        C355   1.272       .  A
O352       Cd357   2.497       .  S
C353        O362   1.265       .  A
C353        O358   1.270       .  A
C353        C626   1.491       .  S
O354        C360   1.270       .  A
O354       Cd357   2.496       .  S
C355        O363   1.265       .  A
C355        C842   1.488       .  S
C356        O361   1.271       .  A
C356        O359   1.265       .  A
C356       C2066   1.490       .  S
Cd357       O364   2.460       .  S
Cd357       O363   2.423       .  S
Cd357       O362   2.444       .  S
Cd357       O358   2.509       .  S
Cd357       O361   2.503       .  S
Cd357       O359   2.441       .  S
C360        O364   1.266       .  A
C360        C665   1.488       .  S
O365        C368   1.271       .  A
O365       Cd370   2.499       .  S
C366        O375   1.265       .  A
C366        O371   1.272       .  A
C366       C1601   1.491       .  S
O367        C373   1.264       .  A
O367       Cd370   2.410       .  S
C368        O376   1.265       .  A
C368        C722   1.491       .  S
C369        O374   1.270       .  A
C369        O372   1.266       .  A
C369        C593   1.484       .  S
Cd370       O377   2.494       .  S
Cd370       O376   2.456       .  S
Cd370       O375   2.446       .  S
Cd370       O371   2.496       .  S
Cd370       O374   2.464       .  S
Cd370       O372   2.455       .  S
C373        O377   1.271       .  A
C373       C1001   1.484       .  S
O378        C381   1.271       .  A
O378       Cd383   2.514       .  S
C379        O388   1.266       .  A
C379        O384   1.270       .  A
C379        C641   1.488       .  S
O380        C386   1.270       .  A
O380       Cd383   2.489       .  S
C381        O389   1.263       .  A
C381       C1946   1.485       .  S
C382        O387   1.268       .  A
C382        O385   1.265       .  A
C382        C602   1.484       .  S
Cd383       O390   2.445       .  S
Cd383       O389   2.400       .  S
Cd383       O388   2.438       .  S
Cd383       O384   2.505       .  S
Cd383       O387   2.491       .  S
Cd383       O385   2.452       .  S
C386        O390   1.265       .  A
C386       C1145   1.488       .  S
O391        C394   1.270       .  A
O391       Cd396   2.506       .  S
C392        O401   1.264       .  A
C392        O397   1.270       .  A
C392       C1898   1.492       .  S
O393        C399   1.270       .  A
O393       Cd396   2.509       .  S
C394        O402   1.264       .  A
C394        C617   1.491       .  S
C395        O400   1.269       .  A
C395        O398   1.265       .  A
C395        C578   1.488       .  S
Cd396       O403   2.422       .  S
Cd396       O402   2.445       .  S
Cd396       O401   2.441       .  S
Cd396       O397   2.521       .  S
Cd396       O400   2.500       .  S
Cd396       O398   2.447       .  S
C399        O403   1.265       .  A
C399       C1097   1.484       .  S
O404        C407   1.270       .  A
O404       Cd409   2.480       .  S
C405        O414   1.263       .  A
C405        O410   1.268       .  A
C405        C554   1.483       .  S
O406        C412   1.265       .  A
O406       Cd409   2.425       .  S
C407        O415   1.266       .  A
C407       C1385   1.479       .  S
C408        O413   1.268       .  A
C408        O411   1.265       .  A
C408        C569   1.483       .  S
Cd409       O416   2.485       .  S
Cd409       O415   2.419       .  S
Cd409       O414   2.441       .  S
Cd409       O410   2.484       .  S
Cd409       O413   2.479       .  S
Cd409       O411   2.463       .  S
C412        O416   1.270       .  A
C412        C761   1.481       .  S
O417        C420   1.269       .  A
O417       Cd422   2.490       .  S
C418        O427   1.266       .  A
C418        O423   1.270       .  A
C418       C1337   1.481       .  S
O419        C425   1.269       .  A
O419       Cd422   2.477       .  S
C420        O428   1.263       .  A
C420        C497   1.477       .  S
C421        O426   1.270       .  A
C421        O424   1.265       .  A
C421        C521   1.478       .  S
Cd422       O429   2.429       .  S
Cd422       O428   2.414       .  S
Cd422       O427   2.422       .  S
Cd422       O423   2.476       .  S
Cd422       O426   2.473       .  S
Cd422       O424   2.414       .  S
C425        O429   1.264       .  A
C425        C785   1.479       .  S
O430        C433   1.268       .  A
O430       Cd435   2.511       .  S
C431        O440   1.266       .  A
C431        O436   1.268       .  A
C431        C698   1.485       .  S
O432        C438   1.263       .  A
O432       Cd435   2.466       .  S
C433        O441   1.261       .  A
C433       C1658   1.489       .  S
C434        O439   1.267       .  A
C434        O437   1.264       .  A
C434        C530   1.479       .  S
Cd435       O442   2.474       .  S
Cd435       O441   2.449       .  S
Cd435       O440   2.460       .  S
Cd435       O436   2.495       .  S
Cd435       O439   2.484       .  S
Cd435       O437   2.444       .  S
C438        O442   1.263       .  A
C438       C1058   1.479       .  S
O443        C446   1.267       .  A
O443       Cd448   2.472       .  S
C444        O453   1.267       .  A
C444        O449   1.268       .  A
C444       C1274   1.477       .  S
O445        C451   1.271       .  A
O445       Cd448   2.498       .  S
C446        O454   1.265       .  A
C446        C506   1.476       .  S
C447        O452   1.271       .  A
C447        O450   1.263       .  A
C447        C473   1.490       .  S
Cd448       O455   2.431       .  S
Cd448       O454   2.428       .  S
Cd448       O453   2.417       .  S
Cd448       O449   2.459       .  S
Cd448       O452   2.513       .  S
Cd448       O450   2.437       .  S
C451        O455   1.264       .  A
C451       C1529   1.486       .  S
O456        C459   1.270       .  A
O456       Cd461   2.519       .  S
C457        O466   1.271       .  A
C457        O462   1.266       .  A
C457        C545   1.487       .  S
O458        C464   1.265       .  A
O458       Cd461   2.437       .  S
C459        O467   1.264       .  A
C459        C857   1.489       .  S
C460        O465   1.269       .  A
C460        O463   1.265       .  A
C460        C482   1.483       .  S
Cd461       O468   2.486       .  S
Cd461       O467   2.429       .  S
Cd461       O466   2.478       .  S
Cd461       O462   2.445       .  S
Cd461       O465   2.489       .  S
Cd461       O463   2.444       .  S
C464        O468   1.269       .  A
C464       C2138   1.485       .  S
C469        C470   1.401       .  A
C469        C474   1.400       .  A
C469        H479   1.083       .  S
C470        C475   1.487       .  S
C470        C471   1.411       .  A
C471        C472   1.404       .  A
C471        O476   1.372       .  S
C472        C473   1.406       .  A
C472        H477   1.083       .  S
C473        C474   1.416       .  A
C474        O478   1.372       .  S
C475        C480   1.410       .  A
C475        C484   1.403       .  A
O476        H492   0.992       .  S
O478        H489   0.992       .  S
C480        C481   1.404       .  A
C480        O485   1.372       .  S
C481        C482   1.405       .  A
C481        H486   1.083       .  S
C482        C483   1.411       .  A
C483        C484   1.401       .  A
C483        O487   1.372       .  S
C484        H488   1.084       .  S
O485        H490   0.992       .  S
O487        H491   0.991       .  S
C493        C494   1.404       .  A
C493        C498   1.395       .  A
C493        H503   1.082       .  S
C494        C499   1.489       .  S
C494        C495   1.413       .  A
C495        C496   1.402       .  A
C495        O500   1.371       .  S
C496        C497   1.403       .  A
C496        H501   1.083       .  S
C497        C498   1.409       .  A
C498        O502   1.373       .  S
C499        C504   1.412       .  A
C499        C508   1.407   1_545  A
O500        H516   0.991       .  S
O502        H513   0.991       .  S
C504        C505   1.397   1_545  A
C504        O509   1.373       .  S
C505        C506   1.402       .  A
C505        H510   1.084       .  S
C506        C507   1.408       .  A
C507        C508   1.401       .  A
C507        O511   1.371       .  S
C508        H512   1.083       .  S
O509        H514   0.993       .  S
O511        H515   0.992       .  S
C517        C518   1.401       .  A
C517        C522   1.397       .  A
C517        H527   1.083       .  S
C518        C523   1.480       .  S
C518        C519   1.409       .  A
C519        C520   1.401       .  A
C519        O524   1.372       .  S
C520        C521   1.405       .  A
C520        H525   1.083       .  S
C521        C522   1.412       .  A
C522        O526   1.372       .  S
C523        C528   1.409       .  A
C523        C532   1.401       .  A
O524        H540   0.992       .  S
O526        H537   0.992       .  S
C528        C529   1.401       .  A
C528        O533   1.372       .  S
C529        C530   1.404       .  A
C529        H534   1.083       .  S
C530        C531   1.411       .  A
C531        C532   1.398       .  A
C531        O535   1.372       .  S
C532        H536   1.084       .  S
O533        H538   0.991       .  S
O535        H539   0.992       .  S
C541        C542   1.403       .  A
C541        C546   1.401       .  A
C541        H551   1.084       .  S
C542        C547   1.484       .  S
C542        C543   1.408       .  A
C543        C544   1.402       .  A
C543        O548   1.373       .  S
C544        C545   1.408       .  A
C544        H549   1.083       .  S
C545        C546   1.411       .  A
C546        O550   1.371       .  S
C547        C552   1.408       .  A
C547        C556   1.404       .  A
O548        H564   0.992       .  S
O550        H561   0.992       .  S
C552        C553   1.400       .  A
C552        O557   1.372       .  S
C553        C554   1.407       .  A
C553        H558   1.084       .  S
C554        C555   1.410       .  A
C555        C556   1.400       .  A
C555        O559   1.371       .  S
C556        H560   1.084       .  S
O557        H562   0.992       .  S
O559        H563   0.992       .  S
C565        C566   1.405       .  A
C565        C570   1.400       .  A
C565        H575   1.084       .  S
C566        C571   1.489       .  S
C566        C567   1.410       .  A
C567        C568   1.404       .  A
C567        O572   1.373       .  S
C568        C569   1.406       .  A
C568        H573   1.084       .  S
C569        C570   1.409       .  A
C570        O574   1.372       .  S
C571        C576   1.411       .  A
C571        C580   1.402       .  A
O572        H588   0.992       .  S
O574        H585   0.992       .  S
C576        C577   1.405       .  A
C576        O581   1.371       .  S
C577        C578   1.407       .  A
C577        H582   1.083       .  S
C578        C579   1.413       .  A
C579        C580   1.398       .  A
C579        O583   1.371       .  S
C580        H584   1.084       .  S
O581        H586   0.992       .  S
O583        H587   0.992       .  S
C589        C590   1.404       .  A
C589        C594   1.403       .  A
C589        H599   1.083       .  S
C590        C595   1.487       .  S
C590        C591   1.409       .  A
C591        C592   1.399       .  A
C591        O596   1.371       .  S
C592        C593   1.404       .  A
C592        H597   1.083       .  S
C593        C594   1.414       .  A
C594        O598   1.372       .  S
C595        C600   1.409       .  A
C595        C604   1.403       .  A
O596        H612   0.992       .  S
O598        H609   0.992       .  S
C600        C601   1.405       .  A
C600        O605   1.372       .  S
C601        C602   1.406       .  A
C601        H606   1.083       .  S
C602        C603   1.411       .  A
C603        C604   1.398       .  A
C603        O607   1.371       .  S
C604        H608   1.084       .  S
O605        H610   0.991       .  S
O607        H611   0.991       .  S
C613        C614   1.403       .  A
C613        C618   1.401       .  A
C613        H623   1.083       .  S
C614        C619   1.491       .  S
C614        C615   1.410       .  A
C615        C616   1.405       .  A
C615        O620   1.371       .  S
C616        C617   1.407       .  A
C616        H621   1.083       .  S
C617        C618   1.415       .  A
C618        O622   1.372       .  S
C619        C624   1.408       .  A
C619        C628   1.406       .  A
O620        H636   0.991       .  S
O622        H633   0.992       .  S
C624        C625   1.401       .  A
C624        O629   1.373       .  S
C625        C626   1.407       .  A
C625        H630   1.083       .  S
C626        C627   1.412       .  A
C627        C628   1.406       .  A
C627        O631   1.371       .  S
C628        H632   1.083       .  S
O629        H634   0.992       .  S
O631        H635   0.992       .  S
C637        C638   1.403       .  A
C637        C642   1.405       .  A
C637        H647   1.084       .  S
C638        C643   1.480   1_565  S
C638        C639   1.405       .  A
C639        C640   1.398       .  A
C639        O644   1.372   1_565  S
C640        C641   1.407       .  A
C640        H645   1.083       .  S
C641        C642   1.413       .  A
C642        O646   1.371       .  S
C643        C648   1.406       .  A
C643        C652   1.402       .  A
O644        H660   0.991   1_545  S
O646        H657   0.992       .  S
C648        C649   1.398       .  A
C648        O653   1.372   1_545  S
C649        C650   1.406       .  A
C649        H654   1.084       .  S
C650        C651   1.412       .  A
C651        C652   1.403       .  A
C651        O655   1.371       .  S
C652        H656   1.083       .  S
O653        H658   0.992       .  S
O655        H659   0.992       .  S
C661        C662   1.403       .  A
C661        C666   1.402       .  A
C661        H671   1.083       .  S
C662        C667   1.488       .  S
C662        C663   1.409       .  A
C663        C664   1.404       .  A
C663        O668   1.371       .  S
C664        C665   1.406       .  A
C664        H669   1.083       .  S
C665        C666   1.413       .  A
C666        O670   1.372       .  S
C667        C672   1.409       .  A
C667        C676   1.402       .  A
O668        H684   0.992       .  S
O670        H681   0.992       .  S
C672        C673   1.404       .  A
C672        O677   1.372       .  S
C673        C674   1.406       .  A
C673        H678   1.083       .  S
C674        C675   1.415       .  A
C675        C676   1.402       .  A
C675        O679   1.372       .  S
C676        H680   1.084       .  S
O677        H682   0.991       .  S
O679        H683   0.992       .  S
C685        C686   1.406       .  A
C685        C690   1.408       .  A
C685        H695   1.083       .  S
C686        C691   1.489       .  S
C686        C687   1.407       .  A
C687        C688   1.397       .  A
C687        O692   1.372       .  S
C688        C689   1.407       .  A
C688        H693   1.083       .  S
C689        C690   1.413       .  A
C690        O694   1.371       .  S
C691        C696   1.409       .  A
C691        C700   1.405       .  A
O692        H708   0.992       .  S
O694        H705   0.992       .  S
C696        C697   1.405       .  A
C696        O701   1.371       .  S
C697        C698   1.407       .  A
C697        H702   1.083       .  S
C698        C699   1.411       .  A
C699        C700   1.401       .  A
C699        O703   1.372       .  S
C700        H704   1.084       .  S
O701        H706   0.992       .  S
O703        H707   0.992       .  S
C709        C710   1.404       .  A
C709        C714   1.404       .  A
C709        H719   1.083       .  S
C710        C715   1.485       .  S
C710        C711   1.407       .  A
C711        C712   1.399       .  A
C711        O716   1.372       .  S
C712        C713   1.407       .  A
C712        H717   1.083       .  S
C713        C714   1.413       .  A
C714        O718   1.371       .  S
C715        C720   1.407       .  A
C715        C724   1.402       .  A
O716        H732   0.992       .  S
O718        H729   0.992       .  S
C720        C721   1.403       .  A
C720        O725   1.371       .  S
C721        C722   1.406       .  A
C721        H726   1.083       .  S
C722        C723   1.416       .  A
C723        C724   1.403       .  A
C723        O727   1.372       .  S
C724        H728   1.084       .  S
O725        H730   0.991       .  S
O727        H731   0.992       .  S
C733        C734   1.404       .  A
C733        C738   1.401       .  A
C733        H743   1.083   1_455  S
C734        C739   1.483   1_455  S
C734        C735   1.406       .  A
C735        C736   1.399       .  A
C735        O740   1.372   1_554  S
C736        C737   1.408       .  A
C736        H741   1.083       .  S
C737        C738   1.411       .  A
C738        O742   1.371       .  S
C739        C744   1.407       .  A
C739        C748   1.405   1_554  A
O740        H756   0.992   1_556  S
O742        H753   0.992       .  S
C744        C745   1.399       .  A
C744        O749   1.372       .  S
C745        C746   1.403   1_554  A
C745        H750   1.084       .  S
C746        C747   1.409       .  A
C747        C748   1.402       .  A
C747        O751   1.371       .  S
C748        H752   1.083       .  S
O749        H754   0.991       .  S
O751        H755   0.992       .  S
C757        C758   1.403       .  A
C757        C762   1.402       .  A
C757        H767   1.084       .  S
C758        C763   1.479       .  S
C758        C759   1.407       .  A
C759        C760   1.398       .  A
C759        O764   1.372       .  S
C760        C761   1.406       .  A
C760        H765   1.084       .  S
C761        C762   1.410       .  A
C762        O766   1.371       .  S
C763        C768   1.406       .  A
C763        C772   1.401       .  A
O764        H780   0.992       .  S
O766        H777   0.992       .  S
C768        C769   1.400       .  A
C768        O773   1.371       .  S
C769        C770   1.406       .  A
C769        H774   1.083       .  S
C770        C771   1.414       .  A
C771        C772   1.399       .  A
C771        O775   1.372       .  S
C772        H776   1.084       .  S
O773        H778   0.991       .  S
O775        H779   0.992       .  S
C781        C782   1.401   1_544  A
C781        C786   1.397       .  A
C781        H791   1.084   1_554  S
C782        C787   1.478       .  S
C782        C783   1.408   1_566  A
C783        C784   1.401       .  A
C783        O788   1.371   1_545  S
C784        C785   1.405       .  A
C784        H789   1.083       .  S
C785        C786   1.412       .  A
C786        O790   1.372       .  S
C787        C792   1.407       .  A
C787        C796   1.400       .  A
O788        H804   0.991   1_564  S
O790        H801   0.992       .  S
C792        C793   1.400       .  A
C792        O797   1.372       .  S
C793        C794   1.406       .  A
C793        H798   1.083       .  S
C794        C795   1.414       .  A
C795        C796   1.397       .  A
C795        O799   1.372       .  S
C796        H800   1.084   1_556  S
O797        H802   0.992   1_565  S
O799        H803   0.986   1_556  S
C805        C806   1.405       .  A
C805        C810   1.401       .  A
C805        H815   1.083       .  S
C806        C811   1.485       .  S
C806        C807   1.407       .  A
C807        C808   1.399       .  A
C807        O812   1.372       .  S
C808        C809   1.407       .  A
C808        H813   1.083       .  S
C809        C810   1.410       .  A
C810        O814   1.371       .  S
C811        C816   1.408       .  A
C811        C820   1.407       .  A
O812        H828   0.991       .  S
O814        H825   0.991       .  S
C816        C817   1.398       .  A
C816        O821   1.373       .  S
C817        C818   1.403       .  A
C817        H822   1.084       .  S
C818        C819   1.408       .  A
C819        C820   1.403       .  A
C819        O823   1.371       .  S
C820        H824   1.083       .  S
O821        H826   0.992       .  S
O823        H827   0.991       .  S
C829        C830   1.406       .  A
C829        C834   1.404       .  A
C829        H839   1.084       .  S
C830        C835   1.487       .  S
C830        C831   1.407       .  A
C831        C832   1.399       .  A
C831        O836   1.372       .  S
C832        C833   1.407       .  A
C832        H837   1.083       .  S
C833        C834   1.411       .  A
C834        O838   1.371       .  S
C835        C840   1.410       .  A
C835        C844   1.401       .  A
O836        H852   0.992       .  S
O838        H849   0.992       .  S
C840        C841   1.404       .  A
C840        O845   1.371       .  S
C841        C842   1.407       .  A
C841        H846   1.083       .  S
C842        C843   1.415       .  A
C843        C844   1.398       .  A
C843        O847   1.372       .  S
C844        H848   1.084       .  S
O845        H850   0.991       .  S
O847        H851   0.992       .  S
C853        C854   1.407       .  A
C853        C858   1.407       .  A
C853        H863   1.083       .  S
C854        C859   1.487       .  S
C854        C855   1.406       .  A
C855        C856   1.397       .  A
C855        O860   1.372       .  S
C856        C857   1.407       .  A
C856        H861   1.083       .  S
C857        C858   1.413       .  A
C858        O862   1.371       .  S
C859        C864   1.406       .  A
C859        C868   1.406       .  A
O860        H876   0.992       .  S
O862        H873   0.992       .  S
C864        C865   1.400       .  A
C864        O869   1.372       .  S
C865        C866   1.407       .  A
C865        H870   1.083       .  S
C866        C867   1.411       .  A
C867        C868   1.405       .  A
C867        O871   1.371       .  S
C868        H872   1.084       .  S
O869        H874   0.992       .  S
O871        H875   0.991       .  S
C877        C878   1.401       .  A
C877        C882   1.399       .  A
C877        H887   1.084       .  S
C878        C883   1.487       .  S
C878        C879   1.409       .  A
C879        C880   1.406       .  A
C879        O884   1.371       .  S
C880        C881   1.407       .  A
C880        H885   1.083       .  S
C881        C882   1.414       .  A
C882        O886   1.372       .  S
C883        C888   1.408       .  A
C883        C892   1.404       .  A
O884        H900   0.992       .  S
O886        H897   0.992       .  S
C888        C889   1.401       .  A
C888        O893   1.373       .  S
C889        C890   1.407       .  A
C889        H894   1.083       .  S
C890        C891   1.412       .  A
C891        C892   1.404       .  A
C891        O895   1.371       .  S
C892        H896   1.083       .  S
O893        H898   0.992       .  S
O895        H899   0.992       .  S
C901        C902   1.405   1_554  A
C901        C906   1.401       .  A
C901        H911   1.083       .  S
C902        C907   1.493   1_546  S
C902        C903   1.413       .  A
C903        C904   1.402       .  A
C903        O908   1.372   1_545  S
C904        C905   1.404       .  A
C904        H909   1.083       .  S
C905        C906   1.411   1_556  A
C906        O910   1.372       .  S
C907        C912   1.412       .  A
C907        C916   1.404   1_554  A
O908        H924   0.992       .  S
O910        H921   0.993       .  S
C912        C913   1.403       .  A
C912        O917   1.372   1_565  S
C913        C914   1.404       .  A
C913        H918   1.083       .  S
C914        C915   1.414       .  A
C915        C916   1.402   1_554  A
C915        O919   1.372   1_554  S
C916        H920   1.083       .  S
O917        H922   0.992       .  S
O919        H923   0.992       .  S
C925        C926   1.403       .  A
C925        C930   1.402       .  A
C925        H935   1.084       .  S
C926        C931   1.480       .  S
C926        C927   1.405       .  A
C927        C928   1.401       .  A
C927        O932   1.372       .  S
C928        C929   1.408       .  A
C928        H933   1.083       .  S
C929        C930   1.412       .  A
C930        O934   1.371       .  S
C931        C936   1.408       .  A
C931        C940   1.399       .  A
O932        H948   0.991       .  S
O934        H945   0.992       .  S
C936        C937   1.403       .  A
C936        O941   1.371       .  S
C937        C938   1.407       .  A
C937        H942   1.083       .  S
C938        C939   1.415       .  A
C939        C940   1.397       .  A
C939        O943   1.372       .  S
C940        H944   1.084       .  S
O941        H946   0.992       .  S
O943        H947   0.992       .  S
C949        C950   1.408       .  A
C949        C954   1.404       .  A
C949        H959   1.083       .  S
C950        C955   1.493       .  S
C950        C951   1.411       .  A
C951        C952   1.396       .  A
C951        O956   1.372       .  S
C952        C953   1.404       .  A
C952        H957   1.083       .  S
C953        C954   1.411       .  A
C954        O958   1.372       .  S
C955        C960   1.410       .  A
C955        C964   1.408       .  A
O956        H972   0.992       .  S
O958        H969   0.991       .  S
C960        C961   1.398       .  A
C960        O965   1.372       .  S
C961        C962   1.406       .  A
C961        H966   1.083       .  S
C962        C963   1.410       .  A
C963        C964   1.403       .  A
C963        O967   1.371       .  S
C964        H968   1.083       .  S
O965        H970   0.992       .  S
O967        H971   0.991       .  S
C973        C974   1.403       .  A
C973        C978   1.398       .  A
C973        H983   1.083       .  S
C974        C979   1.492       .  S
C974        C975   1.412       .  A
C975        C976   1.405       .  A
C975        O980   1.372       .  S
C976        C977   1.406       .  A
C976        H981   1.083       .  S
C977        C978   1.412       .  A
C978        O982   1.371       .  S
C979        C984   1.412       .  A
C979        C988   1.404       .  A
O980        H996   0.991       .  S
O982        H993   0.991       .  S
C984        C985   1.403       .  A
C984        O989   1.372       .  S
C985        C986   1.404       .  A
C985        H990   1.083       .  S
C986        C987   1.414       .  A
C987        C988   1.402       .  A
C987        O991   1.372       .  S
C988        H992   1.083       .  S
O989        H994   0.992       .  S
O991        H995   0.992       .  S
C997        C998   1.400       .  A
C997       C1002   1.396       .  A
C997       H1007   1.084       .  S
C998       C1003   1.481       .  S
C998        C999   1.409       .  A
C999       C1000   1.403       .  A
C999       O1004   1.372       .  S
C1000      C1001   1.407       .  A
C1000      H1005   1.083       .  S
C1001      C1002   1.414       .  A
C1002      O1006   1.372       .  S
C1003      C1008   1.408       .  A
C1003      C1012   1.401       .  A
O1004      H1020   0.992       .  S
O1006      H1017   0.992       .  S
C1008      C1009   1.402       .  A
C1008      O1013   1.373       .  S
C1009      C1010   1.405       .  A
C1009      H1014   1.083       .  S
C1010      C1011   1.413       .  A
C1011      C1012   1.398       .  A
C1011      O1015   1.372       .  S
C1012      H1016   1.084       .  S
O1013      H1018   0.991       .  S
O1015      H1019   0.992       .  S
C1021      C1022   1.406       .  A
C1021      C1026   1.403       .  A
C1021      H1031   1.083       .  S
C1022      C1027   1.488       .  S
C1022      C1023   1.409       .  A
C1023      C1024   1.401       .  A
C1023      O1028   1.372       .  S
C1024      C1025   1.406       .  A
C1024      H1029   1.084       .  S
C1025      C1026   1.409       .  A
C1026      O1030   1.371       .  S
C1027      C1032   1.408       .  A
C1027      C1036   1.406       .  A
O1028      H1044   0.991       .  S
O1030      H1041   0.991       .  S
C1032      C1033   1.398       .  A
C1032      O1037   1.372       .  S
C1033      C1034   1.406       .  A
C1033      H1038   1.083       .  S
C1034      C1035   1.413       .  A
C1035      C1036   1.405       .  A
C1035      O1039   1.371       .  S
C1036      H1040   1.083       .  S
O1037      H1042   0.991       .  S
O1039      H1043   0.992       .  S
C1045      C1046   1.400       .  A
C1045      C1050   1.398       .  A
C1045      H1055   1.084       .  S
C1046      C1051   1.478       .  S
C1046      C1047   1.408       .  A
C1047      C1048   1.401       .  A
C1047      O1052   1.372       .  S
C1048      C1049   1.404       .  A
C1048      H1053   1.083       .  S
C1049      C1050   1.413       .  A
C1050      O1054   1.372       .  S
C1051      C1056   1.406       .  A
C1051      C1060   1.403       .  A
O1052      H1068   0.992       .  S
O1054      H1065   0.992       .  S
C1056      C1057   1.397       .  A
C1056      O1061   1.372       .  S
C1057      C1058   1.405       .  A
C1057      H1062   1.084       .  S
C1058      C1059   1.412       .  A
C1059      C1060   1.402       .  A
C1059      O1063   1.371       .  S
C1060      H1064   1.084       .  S
O1061      H1066   0.991       .  S
O1063      H1067   0.992       .  S
C1069      C1070   1.405       .  A
C1069      C1074   1.403       .  A
C1069      H1079   1.084   1_655  S
C1070      C1075   1.480   1_655  S
C1070      C1071   1.405       .  A
C1071      C1072   1.398       .  A
C1071      O1076   1.372       .  S
C1072      C1073   1.406       .  A
C1072      H1077   1.084       .  S
C1073      C1074   1.409       .  A
C1074      O1078   1.371       .  S
C1075      C1080   1.404       .  A
C1075      C1084   1.404       .  A
O1076      H1092   0.992       .  S
O1078      H1089   0.992       .  S
C1080      C1081   1.398       .  A
C1080      O1085   1.372       .  S
C1081      C1082   1.407       .  A
C1081      H1086   1.083       .  S
C1082      C1083   1.413       .  A
C1083      C1084   1.404       .  A
C1083      O1087   1.372       .  S
C1084      H1088   1.084       .  S
O1085      H1090   0.991       .  S
O1087      H1091   0.992       .  S
C1093      C1094   1.408       .  A
C1093      C1098   1.407       .  A
C1093      H1103   1.083       .  S
C1094      C1099   1.490       .  S
C1094      C1095   1.408       .  A
C1095      C1096   1.397       .  A
C1095      O1100   1.372       .  S
C1096      C1097   1.405       .  A
C1096      H1101   1.084       .  S
C1097      C1098   1.411       .  A
C1098      O1102   1.371       .  S
C1099      C1104   1.408       .  A
C1099      C1108   1.405       .  A
O1100      H1116   0.992       .  S
O1102      H1113   0.992       .  S
C1104      C1105   1.402       .  A
C1104      O1109   1.372       .  S
C1105      C1106   1.407       .  A
C1105      H1110   1.083       .  S
C1106      C1107   1.412       .  A
C1107      C1108   1.404       .  A
C1107      O1111   1.371       .  S
C1108      H1112   1.084       .  S
O1109      H1114   0.991       .  S
O1111      H1115   0.992       .  S
C1117      C1118   1.403       .  A
C1117      C1122   1.405       .  A
C1117      H1127   1.084       .  S
C1118      C1123   1.482       .  S
C1118      C1119   1.405       .  A
C1119      C1120   1.399       .  A
C1119      O1124   1.372       .  S
C1120      C1121   1.407       .  A
C1120      H1125   1.083       .  S
C1121      C1122   1.414       .  A
C1122      O1126   1.371       .  S
C1123      C1128   1.406       .  A
C1123      C1132   1.403       .  A
O1124      H1140   0.992       .  S
O1126      H1137   0.992       .  S
C1128      C1129   1.397       .  A
C1128      O1133   1.372       .  S
C1129      C1130   1.406       .  A
C1129      H1134   1.083       .  S
C1130      C1131   1.414       .  A
C1131      C1132   1.406       .  A
C1131      O1135   1.371       .  S
C1132      H1136   1.083       .  S
O1133      H1138   0.991       .  S
O1135      H1139   0.992       .  S
C1141      C1142   1.402   1_565  A
C1141      C1146   1.402       .  A
C1141      H1151   1.084   1_565  S
C1142      C1147   1.486   1_556  S
C1142      C1143   1.408   1_545  A
C1143      C1144   1.403       .  A
C1143      O1148   1.373   1_565  S
C1144      C1145   1.405       .  A
C1144      H1149   1.083       .  S
C1145      C1146   1.415       .  A
C1146      O1150   1.372       .  S
C1147      C1152   1.407       .  A
C1147      C1156   1.405       .  A
O1148      H1164   0.992       .  S
O1150      H1161   0.992       .  S
C1152      C1153   1.398       .  A
C1152      O1157   1.372   1_554  S
C1153      C1154   1.406       .  A
C1153      H1158   1.083       .  S
C1154      C1155   1.414       .  A
C1155      C1156   1.406       .  A
C1155      O1159   1.371       .  S
C1156      H1160   1.084       .  S
O1157      H1162   0.992       .  S
O1159      H1163   0.992       .  S
C1165      C1166   1.404       .  A
C1165      C1170   1.407       .  A
C1165      H1175   1.083       .  S
C1166      C1171   1.485       .  S
C1166      C1167   1.408       .  A
C1167      C1168   1.397       .  A
C1167      O1172   1.372       .  S
C1168      C1169   1.406       .  A
C1168      H1173   1.083       .  S
C1169      C1170   1.414       .  A
C1170      O1174   1.371       .  S
C1171      C1176   1.408       .  A
C1171      C1180   1.401       .  A
O1172      H1188   0.992       .  S
O1174      H1185   0.992       .  S
C1176      C1177   1.407       .  A
C1176      O1181   1.371       .  S
C1177      C1178   1.409       .  A
C1177      H1182   1.083       .  S
C1178      C1179   1.414       .  A
C1179      C1180   1.397       .  A
C1179      O1183   1.372       .  S
C1180      H1184   1.084       .  S
O1181      H1186   0.992       .  S
O1183      H1187   0.992       .  S
C1189      C1190   1.406       .  A
C1189      C1194   1.407       .  A
C1189      H1199   1.083       .  S
C1190      C1195   1.492       .  S
C1190      C1191   1.407       .  A
C1191      C1192   1.402       .  A
C1191      O1196   1.371       .  S
C1192      C1193   1.408       .  A
C1192      H1197   1.083       .  S
C1193      C1194   1.413       .  A
C1194      O1198   1.371       .  S
C1195      C1200   1.408       .  A
C1195      C1204   1.406       .  A
O1196      H1212   0.992       .  S
O1198      H1209   0.992       .  S
C1200      C1201   1.404       .  A
C1200      O1205   1.372       .  S
C1201      C1202   1.408       .  A
C1201      H1206   1.083       .  S
C1202      C1203   1.412       .  A
C1203      C1204   1.405       .  A
C1203      O1207   1.371       .  S
C1204      H1208   1.083       .  S
O1205      H1210   0.991       .  S
O1207      H1211   0.992       .  S
C1213      C1214   1.406       .  A
C1213      C1218   1.409       .  A
C1213      H1223   1.083       .  S
C1214      C1219   1.487       .  S
C1214      C1215   1.406       .  A
C1215      C1216   1.399       .  A
C1215      O1220   1.373       .  S
C1216      C1217   1.407       .  A
C1216      H1221   1.083       .  S
C1217      C1218   1.413       .  A
C1218      O1222   1.371       .  S
C1219      C1224   1.407       .  A
C1219      C1228   1.404       .  A
O1220      H1236   0.992       .  S
O1222      H1233   0.992       .  S
C1224      C1225   1.402       .  A
C1224      O1229   1.373       .  S
C1225      C1226   1.408       .  A
C1225      H1230   1.083       .  S
C1226      C1227   1.412       .  A
C1227      C1228   1.407       .  A
C1227      O1231   1.371       .  S
C1228      H1232   1.083       .  S
O1229      H1234   0.991       .  S
O1231      H1235   0.992       .  S
C1237      C1238   1.404       .  A
C1237      C1242   1.398       .  A
C1237      H1247   1.083       .  S
C1238      C1243   1.496       .  S
C1238      C1239   1.413       .  A
C1239      C1240   1.406       .  A
C1239      O1244   1.371       .  S
C1240      C1241   1.407       .  A
C1240      H1245   1.083       .  S
C1241      C1242   1.413       .  A
C1242      O1246   1.372       .  S
C1243      C1248   1.412       .  A
C1243      C1252   1.408       .  A
O1244      H1260   0.991       .  S
O1246      H1257   0.993       .  S
C1248      C1249   1.399       .  A
C1248      O1253   1.373       .  S
C1249      C1250   1.405       .  A
C1249      H1254   1.083       .  S
C1250      C1251   1.411       .  A
C1251      C1252   1.406       .  A
C1251      O1255   1.371       .  S
C1252      H1256   1.083       .  S
O1253      H1258   0.993       .  S
O1255      H1259   0.991       .  S
C1261      C1262   1.398       .  A
C1261      C1266   1.396       .  A
C1261      H1271   1.084       .  S
C1262      C1267   1.473       .  S
C1262      C1263   1.405       .  A
C1263      C1264   1.401       .  A
C1263      O1268   1.372       .  S
C1264      C1265   1.406       .  A
C1264      H1269   1.083       .  S
C1265      C1266   1.416       .  A
C1266      O1270   1.372       .  S
C1267      C1272   1.404       .  A
C1267      C1276   1.402       .  A
O1268      H1284   0.991       .  S
O1270      H1281   0.992       .  S
C1272      C1273   1.395       .  A
C1272      O1277   1.372       .  S
C1273      C1274   1.405       .  A
C1273      H1278   1.083       .  S
C1274      C1275   1.412       .  A
C1275      C1276   1.401       .  A
C1275      O1279   1.372       .  S
C1276      H1280   1.084       .  S
O1277      H1282   0.992       .  S
O1279      H1283   0.992       .  S
C1285      C1286   1.403       .  A
C1285      C1290   1.400       .  A
C1285      H1295   1.084       .  S
C1286      C1291   1.483       .  S
C1286      C1287   1.410       .  A
C1287      C1288   1.401       .  A
C1287      O1292   1.374       .  S
C1288      C1289   1.404       .  A
C1288      H1293   1.084       .  S
C1289      C1290   1.410       .  A
C1290      O1294   1.371       .  S
C1291      C1296   1.407       .  A
C1291      C1300   1.406       .  A
O1292      H1308   0.992       .  S
O1294      H1305   0.992       .  S
C1296      C1297   1.397       .  A
C1296      O1301   1.374       .  S
C1297      C1298   1.403       .  A
C1297      H1302   1.084       .  S
C1298      C1299   1.409       .  A
C1299      C1300   1.403       .  A
C1299      O1303   1.371       .  S
C1300      H1304   1.084       .  S
O1301      H1306   0.992       .  S
O1303      H1307   0.992       .  S
C1309      C1310   1.402       .  A
C1309      C1314   1.399       .  A
C1309      H1319   1.084       .  S
C1310      C1315   1.484       .  S
C1310      C1311   1.409       .  A
C1311      C1312   1.404       .  A
C1311      O1316   1.371       .  S
C1312      C1313   1.405       .  A
C1312      H1317   1.083       .  S
C1313      C1314   1.411       .  A
C1314      O1318   1.372       .  S
C1315      C1320   1.408       .  A
C1315      C1324   1.401       .  A
O1316      H1332   0.992       .  S
O1318      H1329   0.992       .  S
C1320      C1321   1.403       .  A
C1320      O1325   1.372       .  S
C1321      C1322   1.405       .  A
C1321      H1326   1.083       .  S
C1322      C1323   1.416       .  A
C1323      C1324   1.401       .  A
C1323      O1327   1.372       .  S
C1324      H1328   1.084       .  S
O1325      H1330   0.991       .  S
O1327      H1331   0.992       .  S
C1333      C1334   1.405       .  A
C1333      C1338   1.402       .  A
C1333      H1343   1.084       .  S
C1334      C1339   1.482   1_655  S
C1334      C1335   1.407       .  A
C1335      C1336   1.398       .  A
C1335      O1340   1.373   1_554  S
C1336      C1337   1.405       .  A
C1336      H1341   1.084       .  S
C1337      C1338   1.411       .  A
C1338      O1342   1.371       .  S
C1339      C1344   1.410   1_554  A
C1339      C1348   1.401       .  A
O1340      H1356   0.992       .  S
O1342      H1353   0.991       .  S
C1344      C1345   1.401       .  A
C1344      O1349   1.371   1_455  S
C1345      C1346   1.405       .  A
C1345      H1350   1.083       .  S
C1346      C1347   1.410       .  A
C1347      C1348   1.398   1_556  A
C1347      O1351   1.372       .  S
C1348      H1352   1.084       .  S
O1349      H1354   0.992   1_556  S
O1351      H1355   0.991       .  S
C1357      C1358   1.400   1_554  A
C1357      C1362   1.398       .  A
C1357      H1367   1.084   1_554  S
C1358      C1363   1.484       .  S
C1358      C1359   1.409   1_556  A
C1359      C1360   1.405       .  A
C1359      O1364   1.371   1_554  S
C1360      C1361   1.407       .  A
C1360      H1365   1.083       .  S
C1361      C1362   1.414       .  A
C1362      O1366   1.372       .  S
C1363      C1368   1.408       .  A
C1363      C1372   1.401       .  A
O1364      H1380   0.992       .  S
O1366      H1377   0.992       .  S
C1368      C1369   1.404       .  A
C1368      O1373   1.372       .  S
C1369      C1370   1.406       .  A
C1369      H1374   1.083       .  S
C1370      C1371   1.415       .  A
C1371      C1372   1.401       .  A
C1371      O1375   1.372       .  S
C1372      H1376   1.084   1_556  S
O1373      H1378   0.991       .  S
O1375      H1379   0.992       .  S
C1381      C1382   1.400       .  A
C1381      C1386   1.395       .  A
C1381      H1391   1.084       .  S
C1382      C1387   1.476       .  S
C1382      C1383   1.407       .  A
C1383      C1384   1.403       .  A
C1383      O1388   1.371       .  S
C1384      C1385   1.406       .  A
C1384      H1389   1.083       .  S
C1385      C1386   1.412       .  A
C1386      O1390   1.372       .  S
C1387      C1392   1.407       .  A
C1387      C1396   1.399       .  A
O1388      H1404   0.992       .  S
O1390      H1401   0.993       .  S
C1392      C1393   1.399       .  A
C1392      O1397   1.372       .  S
C1393      C1394   1.404       .  A
C1393      H1398   1.083       .  S
C1394      C1395   1.414       .  A
C1395      C1396   1.400       .  A
C1395      O1399   1.372       .  S
C1396      H1400   1.084       .  S
O1397      H1402   0.992       .  S
O1399      H1403   0.992       .  S
C1405      C1406   1.405       .  A
C1405      C1410   1.404       .  A
C1405      H1415   1.084       .  S
C1406      C1411   1.483       .  S
C1406      C1407   1.406       .  A
C1407      C1408   1.398       .  A
C1407      O1412   1.373       .  S
C1408      C1409   1.407       .  A
C1408      H1413   1.083       .  S
C1409      C1410   1.411       .  A
C1410      O1414   1.371       .  S
C1411      C1416   1.409       .  A
C1411      C1420   1.401       .  A
O1412      H1428   0.992       .  S
O1414      H1425   0.991       .  S
C1416      C1417   1.402       .  A
C1416      O1421   1.371       .  S
C1417      C1418   1.406       .  A
C1417      H1422   1.083       .  S
C1418      C1419   1.414       .  A
C1419      C1420   1.399       .  A
C1419      O1423   1.372       .  S
C1420      H1424   1.084       .  S
O1421      H1426   0.992       .  S
O1423      H1427   0.992       .  S
C1429      C1430   1.401       .  A
C1429      C1434   1.399       .  A
C1429      H1439   1.083       .  S
C1430      C1435   1.483       .  S
C1430      C1431   1.410       .  A
C1431      C1432   1.401       .  A
C1431      O1436   1.372       .  S
C1432      C1433   1.405       .  A
C1432      H1437   1.083       .  S
C1433      C1434   1.415       .  A
C1434      O1438   1.371       .  S
C1435      C1440   1.411       .  A
C1435      C1444   1.402       .  A
O1436      H1452   0.991       .  S
O1438      H1449   0.992       .  S
C1440      C1441   1.402       .  A
C1440      O1445   1.372       .  S
C1441      C1442   1.403       .  A
C1441      H1446   1.084       .  S
C1442      C1443   1.409       .  A
C1443      C1444   1.397       .  A
C1443      O1447   1.372       .  S
C1444      H1448   1.084       .  S
O1445      H1450   0.991       .  S
O1447      H1451   0.992       .  S
C1453      C1454   1.403       .  A
C1453      C1458   1.397       .  A
C1453      H1463   1.083       .  S
C1454      C1459   1.490       .  S
C1454      C1455   1.412       .  A
C1455      C1456   1.403       .  A
C1455      O1460   1.371       .  S
C1456      C1457   1.405       .  A
C1456      H1461   1.083       .  S
C1457      C1458   1.413       .  A
C1458      O1462   1.372       .  S
C1459      C1464   1.412       .  A
C1459      C1468   1.403       .  A
O1460      H1476   0.991       .  S
O1462      H1473   0.991       .  S
C1464      C1465   1.404       .  A
C1464      O1469   1.373       .  S
C1465      C1466   1.405       .  A
C1465      H1470   1.083       .  S
C1466      C1467   1.413       .  A
C1467      C1468   1.398       .  A
C1467      O1471   1.371       .  S
C1468      H1472   1.083       .  S
O1469      H1474   0.993       .  S
O1471      H1475   0.992       .  S
C1477      C1478   1.401       .  A
C1477      C1482   1.400       .  A
C1477      H1487   1.084       .  S
C1478      C1483   1.488       .  S
C1478      C1479   1.410       .  A
C1479      C1480   1.406       .  A
C1479      O1484   1.373       .  S
C1480      C1481   1.406       .  A
C1480      H1485   1.083       .  S
C1481      C1482   1.415       .  A
C1482      O1486   1.371       .  S
C1483      C1488   1.409       .  A
C1483      C1492   1.405       .  A
O1484      H1500   0.992       .  S
O1486      H1497   0.992       .  S
C1488      C1489   1.399       .  A
C1488      O1493   1.371       .  S
C1489      C1490   1.406       .  A
C1489      H1494   1.083       .  S
C1490      C1491   1.412       .  A
C1491      C1492   1.403       .  A
C1491      O1495   1.371       .  S
C1492      H1496   1.083       .  S
O1493      H1498   0.992       .  S
O1495      H1499   0.992       .  S
C1501      C1502   1.402       .  A
C1501      C1506   1.401   1_455  A
C1501      H1511   1.084       .  S
C1502      C1507   1.488       .  S
C1502      C1503   1.410       .  A
C1503      C1504   1.406   1_455  A
C1503      O1508   1.373       .  S
C1504      C1505   1.405       .  A
C1504      H1509   1.083       .  S
C1505      C1506   1.413       .  A
C1506      O1510   1.372       .  S
C1507      C1512   1.409       .  A
C1507      C1516   1.406       .  A
O1508      H1524   0.992       .  S
O1510      H1521   0.992       .  S
C1512      C1513   1.398       .  A
C1512      O1517   1.371       .  S
C1513      C1514   1.406       .  A
C1513      H1518   1.083       .  S
C1514      C1515   1.411       .  A
C1515      C1516   1.404       .  A
C1515      O1519   1.371       .  S
C1516      H1520   1.083       .  S
O1517      H1522   0.992       .  S
O1519      H1523   0.992       .  S
C1525      C1526   1.403       .  A
C1525      C1530   1.404   1_545  A
C1525      H1535   1.083       .  S
C1526      C1531   1.479       .  S
C1526      C1527   1.405       .  A
C1527      C1528   1.399   1_545  A
C1527      O1532   1.372       .  S
C1528      C1529   1.408       .  A
C1528      H1533   1.083       .  S
C1529      C1530   1.412       .  A
C1530      O1534   1.371       .  S
C1531      C1536   1.405       .  A
C1531      C1540   1.402       .  A
O1532      H1548   0.992       .  S
O1534      H1545   0.992       .  S
C1536      C1537   1.400       .  A
C1536      O1541   1.372       .  S
C1537      C1538   1.408       .  A
C1537      H1542   1.083       .  S
C1538      C1539   1.412       .  A
C1539      C1540   1.402       .  A
C1539      O1543   1.371       .  S
C1540      H1544   1.083       .  S
O1541      H1546   0.991       .  S
O1543      H1547   0.992       .  S
C1549      C1550   1.405   1_655  A
C1549      C1554   1.405       .  A
C1549      H1559   1.084       .  S
C1550      C1555   1.488       .  S
C1550      C1551   1.408       .  A
C1551      C1552   1.402   1_455  A
C1551      O1556   1.373       .  S
C1552      C1553   1.408       .  A
C1552      H1557   1.083       .  S
C1553      C1554   1.412       .  A
C1554      O1558   1.371       .  S
C1555      C1560   1.408       .  A
C1555      C1564   1.406       .  A
O1556      H1572   0.992       .  S
O1558      H1569   0.992       .  S
C1560      C1561   1.398       .  A
C1560      O1565   1.372       .  S
C1561      C1562   1.407       .  A
C1561      H1566   1.083       .  S
C1562      C1563   1.412       .  A
C1563      C1564   1.407       .  A
C1563      O1567   1.371       .  S
C1564      H1568   1.083       .  S
O1565      H1570   0.991   1_455  S
O1567      H1571   0.992       .  S
C1573      C1574   1.408       .  A
C1573      C1578   1.404       .  A
C1573      H1583   1.083       .  S
C1574      C1579   1.494       .  S
C1574      C1575   1.409       .  A
C1575      C1576   1.404       .  A
C1575      O1580   1.373       .  S
C1576      C1577   1.408       .  A
C1576      H1581   1.083       .  S
C1577      C1578   1.409       .  A
C1578      O1582   1.371       .  S
C1579      C1584   1.413       .  A
C1579      C1588   1.404       .  A
O1580      H1596   0.992       .  S
O1582      H1593   0.992       .  S
C1584      C1585   1.405       .  A
C1584      O1589   1.371       .  S
C1585      C1586   1.406       .  A
C1585      H1590   1.083       .  S
C1586      C1587   1.412       .  A
C1587      C1588   1.400       .  A
C1587      O1591   1.371       .  S
C1588      H1592   1.084       .  S
O1589      H1594   0.991       .  S
O1591      H1595   0.992       .  S
C1597      C1598   1.401       .  A
C1597      C1602   1.403       .  A
C1597      H1607   1.084       .  S
C1598      C1603   1.486       .  S
C1598      C1599   1.408       .  A
C1599      C1600   1.404       .  A
C1599      O1604   1.372       .  S
C1600      C1601   1.406       .  A
C1600      H1605   1.083       .  S
C1601      C1602   1.416       .  A
C1602      O1606   1.372       .  S
C1603      C1608   1.407       .  A
C1603      C1612   1.404       .  A
O1604      H1620   0.992       .  S
O1606      H1617   0.992       .  S
C1608      C1609   1.399       .  A
C1608      O1613   1.372       .  S
C1609      C1610   1.407       .  A
C1609      H1614   1.083       .  S
C1610      C1611   1.413       .  A
C1611      C1612   1.406       .  A
C1611      O1615   1.371       .  S
C1612      H1616   1.083       .  S
O1613      H1618   0.992       .  S
O1615      H1619   0.992       .  S
C1621      C1622   1.400       .  A
C1621      C1626   1.396       .  A
C1621      H1631   1.084       .  S
C1622      C1627   1.482       .  S
C1622      C1623   1.408       .  A
C1623      C1624   1.404       .  A
C1623      O1628   1.371       .  S
C1624      C1625   1.407       .  A
C1624      H1629   1.083       .  S
C1625      C1626   1.414       .  A
C1626      O1630   1.372       .  S
C1627      C1632   1.408       .  A
C1627      C1636   1.402       .  A
O1628      H1644   0.992       .  S
O1630      H1641   0.992       .  S
C1632      C1633   1.401       .  A
C1632      O1637   1.372       .  S
C1633      C1634   1.404       .  A
C1633      H1638   1.083       .  S
C1634      C1635   1.414       .  A
C1635      C1636   1.401       .  A
C1635      O1639   1.372       .  S
C1636      H1640   1.084       .  S
O1637      H1642   0.993       .  S
O1639      H1643   0.992       .  S
C1645      C1646   1.404       .  A
C1645      C1650   1.401       .  A
C1645      H1655   1.083       .  S
C1646      C1651   1.492       .  S
C1646      C1647   1.411       .  A
C1647      C1648   1.402       .  A
C1647      O1652   1.371       .  S
C1648      C1649   1.405       .  A
C1648      H1653   1.083       .  S
C1649      C1650   1.414       .  A
C1650      O1654   1.372       .  S
C1651      C1656   1.411       .  A
C1651      C1660   1.403       .  A
O1652      H1668   0.991       .  S
O1654      H1665   0.993       .  S
C1656      C1657   1.405       .  A
C1656      O1661   1.372       .  S
C1657      C1658   1.405       .  A
C1657      H1662   1.083       .  S
C1658      C1659   1.415       .  A
C1659      C1660   1.400       .  A
C1659      O1663   1.372       .  S
C1660      H1664   1.083       .  S
O1661      H1666   0.993       .  S
O1663      H1667   0.992       .  S
C1669      C1670   1.404       .  A
C1669      C1674   1.405       .  A
C1669      H1679   1.083       .  S
C1670      C1675   1.484       .  S
C1670      C1671   1.405       .  A
C1671      C1672   1.400       .  A
C1671      O1676   1.372       .  S
C1672      C1673   1.408       .  A
C1672      H1677   1.083       .  S
C1673      C1674   1.413       .  A
C1674      O1678   1.371       .  S
C1675      C1680   1.409       .  A
C1675      C1684   1.399       .  A
O1676      H1692   0.991       .  S
O1678      H1689   0.992       .  S
C1680      C1681   1.406       .  A
C1680      O1685   1.371       .  S
C1681      C1682   1.408       .  A
C1681      H1686   1.083       .  S
C1682      C1683   1.415       .  A
C1683      C1684   1.400       .  A
C1683      O1687   1.372       .  S
C1684      H1688   1.084       .  S
O1685      H1690   0.992       .  S
O1687      H1691   0.992       .  S
C1693      C1694   1.404       .  A
C1693      C1698   1.406       .  A
C1693      H1703   1.083       .  S
C1694      C1699   1.486       .  S
C1694      C1695   1.407       .  A
C1695      C1696   1.401       .  A
C1695      O1700   1.372       .  S
C1696      C1697   1.409       .  A
C1696      H1701   1.083       .  S
C1697      C1698   1.413       .  A
C1698      O1702   1.371       .  S
C1699      C1704   1.407       .  A
C1699      C1708   1.401       .  A
O1700      H1716   0.992       .  S
O1702      H1713   0.992       .  S
C1704      C1705   1.406       .  A
C1704      O1709   1.371       .  S
C1705      C1706   1.408       .  A
C1705      H1710   1.083       .  S
C1706      C1707   1.415       .  A
C1707      C1708   1.401       .  A
C1707      O1711   1.372       .  S
C1708      H1712   1.084       .  S
O1709      H1714   0.990       .  S
O1711      H1715   0.992       .  S
C1717      C1718   1.403       .  A
C1717      C1722   1.403       .  A
C1717      H1727   1.083       .  S
C1718      C1723   1.492   1_565  S
C1718      C1719   1.413       .  A
C1719      C1720   1.403       .  A
C1719      O1724   1.372       .  S
C1720      C1721   1.405       .  A
C1720      H1725   1.083       .  S
C1721      C1722   1.413       .  A
C1722      O1726   1.371       .  S
C1723      C1728   1.412       .  A
C1723      C1732   1.402       .  A
O1724      H1740   0.992       .  S
O1726      H1737   0.992       .  S
C1728      C1729   1.408       .  A
C1728      O1733   1.372   1_545  S
C1729      C1730   1.407       .  A
C1729      H1734   1.083       .  S
C1730      C1731   1.413       .  A
C1731      C1732   1.398       .  A
C1731      O1735   1.371       .  S
C1732      H1736   1.084       .  S
O1733      H1738   0.991       .  S
O1735      H1739   0.992       .  S
C1741      C1742   1.404   1_455  A
C1741      C1746   1.401       .  A
C1741      H1751   1.084   1_455  S
C1742      C1747   1.481       .  S
C1742      C1743   1.405   1_655  A
C1743      C1744   1.401       .  A
C1743      O1748   1.372       .  S
C1744      C1745   1.409       .  A
C1744      H1749   1.083       .  S
C1745      C1746   1.410       .  A
C1746      O1750   1.371       .  S
C1747      C1752   1.404       .  A
C1747      C1756   1.405       .  A
O1748      H1764   0.992   1_455  S
O1750      H1761   0.992       .  S
C1752      C1753   1.394       .  A
C1752      O1757   1.372       .  S
C1753      C1754   1.405       .  A
C1753      H1758   1.083       .  S
C1754      C1755   1.413       .  A
C1755      C1756   1.406       .  A
C1755      O1759   1.371       .  S
C1756      H1760   1.083       .  S
O1757      H1762   0.991       .  S
O1759      H1763   0.992       .  S
C1765      C1766   1.403       .  A
C1765      C1770   1.401       .  A
C1765      H1775   1.084       .  S
C1766      C1771   1.482       .  S
C1766      C1767   1.407       .  A
C1767      C1768   1.400       .  A
C1767      O1772   1.372       .  S
C1768      C1769   1.407       .  A
C1768      H1773   1.084       .  S
C1769      C1770   1.410       .  A
C1770      O1774   1.371       .  S
C1771      C1776   1.408   1_565  A
C1771      C1780   1.401   1_565  A
O1772      H1788   0.991       .  S
O1774      H1785   0.992       .  S
C1776      C1777   1.403       .  A
C1776      O1781   1.371   1_545  S
C1777      C1778   1.406       .  A
C1777      H1782   1.083       .  S
C1778      C1779   1.412       .  A
C1779      C1780   1.398       .  A
C1779      O1783   1.372       .  S
C1780      H1784   1.084       .  S
O1781      H1786   0.992       .  S
O1783      H1787   0.992       .  S
C1789      C1790   1.403       .  A
C1789      C1794   1.403       .  A
C1789      H1799   1.084       .  S
C1790      C1795   1.477       .  S
C1790      C1791   1.404       .  A
C1791      C1792   1.397       .  A
C1791      O1796   1.372       .  S
C1792      C1793   1.408       .  A
C1792      H1797   1.083       .  S
C1793      C1794   1.412       .  A
C1794      O1798   1.371       .  S
C1795      C1800   1.408       .  A
C1795      C1804   1.400       .  A
O1796      H1812   0.991       .  S
O1798      H1809   0.991       .  S
C1800      C1801   1.404       .  A
C1800      O1805   1.371       .  S
C1801      C1802   1.404       .  A
C1801      H1806   1.083       .  S
C1802      C1803   1.408       .  A
C1803      C1804   1.397       .  A
C1803      O1807   1.372       .  S
C1804      H1808   1.084       .  S
O1805      H1810   0.991       .  S
O1807      H1811   0.992       .  S
C1813      C1814   1.400       .  A
C1813      C1818   1.400       .  A
C1813      H1823   1.084       .  S
C1814      C1819   1.476       .  S
C1814      C1815   1.405       .  A
C1815      C1816   1.401       .  A
C1815      O1820   1.371       .  S
C1816      C1817   1.406       .  A
C1816      H1821   1.083       .  S
C1817      C1818   1.414       .  A
C1818      O1822   1.372       .  S
C1819      C1824   1.407       .  A
C1819      C1828   1.399       .  A
O1820      H1836   0.992       .  S
O1822      H1833   0.992       .  S
C1824      C1825   1.405       .  A
C1824      O1829   1.371       .  S
C1825      C1826   1.406       .  A
C1825      H1830   1.083       .  S
C1826      C1827   1.411       .  A
C1827      C1828   1.396       .  A
C1827      O1831   1.372       .  S
C1828      H1832   1.084       .  S
O1829      H1834   0.992       .  S
O1831      H1835   0.992       .  S
C1837      C1838   1.402       .  A
C1837      C1842   1.404       .  A
C1837      H1847   1.084       .  S
C1838      C1843   1.479       .  S
C1838      C1839   1.406       .  A
C1839      C1840   1.401       .  A
C1839      O1844   1.372       .  S
C1840      C1841   1.406       .  A
C1840      H1845   1.084       .  S
C1841      C1842   1.411       .  A
C1842      O1846   1.371       .  S
C1843      C1848   1.404       .  A
C1843      C1852   1.403       .  A
O1844      H1860   0.992       .  S
O1846      H1857   0.991       .  S
C1848      C1849   1.396       .  A
C1848      O1853   1.372       .  S
C1849      C1850   1.406       .  A
C1849      H1854   1.083       .  S
C1850      C1851   1.414       .  A
C1851      C1852   1.407       .  A
C1851      O1855   1.371       .  S
C1852      H1856   1.083       .  S
O1853      H1858   0.992       .  S
O1855      H1859   0.992       .  S
C1861      C1862   1.402       .  A
C1861      C1866   1.399       .  A
C1861      H1871   1.083       .  S
C1862      C1867   1.492       .  S
C1862      C1863   1.413       .  A
C1863      C1864   1.404       .  A
C1863      O1868   1.371       .  S
C1864      C1865   1.405       .  A
C1864      H1869   1.083       .  S
C1865      C1866   1.414       .  A
C1866      O1870   1.372       .  S
C1867      C1872   1.412       .  A
C1867      C1876   1.403       .  A
O1868      H1884   0.991       .  S
O1870      H1881   0.992       .  S
C1872      C1873   1.405       .  A
C1872      O1877   1.372       .  S
C1873      C1874   1.405       .  A
C1873      H1878   1.083       .  S
C1874      C1875   1.413       .  A
C1875      C1876   1.400       .  A
C1875      O1879   1.372       .  S
C1876      H1880   1.083       .  S
O1877      H1882   0.992       .  S
O1879      H1883   0.991       .  S
C1885      C1886   1.403       .  A
C1885      C1890   1.406       .  A
C1885      H1895   1.083       .  S
C1886      C1891   1.481       .  S
C1886      C1887   1.404       .  A
C1887      C1888   1.400       .  A
C1887      O1892   1.372       .  S
C1888      C1889   1.408       .  A
C1888      H1893   1.083       .  S
C1889      C1890   1.414       .  A
C1890      O1894   1.371       .  S
C1891      C1896   1.408       .  A
C1891      C1900   1.398       .  A
O1892      H1908   0.991       .  S
O1894      H1905   0.992       .  S
C1896      C1897   1.408       .  A
C1896      O1901   1.371       .  S
C1897      C1898   1.409       .  A
C1897      H1902   1.083       .  S
C1898      C1899   1.416       .  A
C1899      C1900   1.399       .  A
C1899      O1903   1.371       .  S
C1900      H1904   1.084       .  S
O1901      H1906   0.992       .  S
O1903      H1907   0.992       .  S
C1909      C1910   1.400       .  A
C1909      C1914   1.397       .  A
C1909      H1919   1.084       .  S
C1910      C1915   1.481       .  S
C1910      C1911   1.409       .  A
C1911      C1912   1.403       .  A
C1911      O1916   1.371       .  S
C1912      C1913   1.407       .  A
C1912      H1917   1.083       .  S
C1913      C1914   1.414       .  A
C1914      O1918   1.372       .  S
C1915      C1920   1.408       .  A
C1915      C1924   1.401       .  A
O1916      H1932   0.992       .  S
O1918      H1929   0.992       .  S
C1920      C1921   1.402       .  A
C1920      O1925   1.372       .  S
C1921      C1922   1.406       .  A
C1921      H1926   1.083       .  S
C1922      C1923   1.413       .  A
C1923      C1924   1.398       .  A
C1923      O1927   1.371       .  S
C1924      H1928   1.084       .  S
O1925      H1930   0.992       .  S
O1927      H1931   0.992       .  S
C1933      C1934   1.404       .  A
C1933      C1938   1.402   1_456  A
C1933      H1943   1.084       .  S
C1934      C1939   1.482       .  S
C1934      C1935   1.406   1_455  A
C1935      C1936   1.401   1_556  A
C1935      O1940   1.372       .  S
C1936      C1937   1.407       .  A
C1936      H1941   1.083       .  S
C1937      C1938   1.411       .  A
C1938      O1942   1.371       .  S
C1939      C1944   1.404       .  A
C1939      C1948   1.406       .  A
O1940      H1956   0.992   1_655  S
O1942      H1953   0.991       .  S
C1944      C1945   1.395       .  A
C1944      O1949   1.372   1_556  S
C1945      C1946   1.407       .  A
C1945      H1950   1.083       .  S
C1946      C1947   1.411       .  A
C1947      C1948   1.407       .  A
C1947      O1951   1.371       .  S
C1948      H1952   1.083       .  S
O1949      H1954   0.991       .  S
O1951      H1955   0.992       .  S
C1957      C1958   1.404       .  A
C1957      C1962   1.406   1_554  A
C1957      H1967   1.084       .  S
C1958      C1963   1.482       .  S
C1958      C1959   1.405   1_554  A
C1959      C1960   1.397       .  A
C1959      O1964   1.372   1_556  S
C1960      C1961   1.406       .  A
C1960      H1965   1.083       .  S
C1961      C1962   1.413       .  A
C1962      O1966   1.371       .  S
C1963      C1968   1.408       .  A
C1963      C1972   1.401       .  A
O1964      H1980   0.992       .  S
O1966      H1977   0.992       .  S
C1968      C1969   1.401       .  A
C1968      O1973   1.371       .  S
C1969      C1970   1.406       .  A
C1969      H1974   1.083       .  S
C1970      C1971   1.415       .  A
C1971      C1972   1.402       .  A
C1971      O1975   1.372       .  S
C1972      H1976   1.084   1_554  S
O1973      H1978   0.992       .  S
O1975      H1979   0.992       .  S
C1981      C1982   1.402   1_455  A
C1981      C1986   1.402   1_455  A
C1981      H1991   1.084       .  S
C1982      C1987   1.485   1_655  S
C1982      C1983   1.407       .  A
C1983      C1984   1.405       .  A
C1983      O1988   1.371       .  S
C1984      C1985   1.408       .  A
C1984      H1989   1.083       .  S
C1985      C1986   1.415       .  A
C1986      O1990   1.372       .  S
C1987      C1992   1.405       .  A
C1987      C1996   1.404       .  A
O1988      H2004   0.992       .  S
O1990      H2001   0.992       .  S
C1992      C1993   1.399       .  A
C1992      O1997   1.372   1_455  S
C1993      C1994   1.407       .  A
C1993      H1998   1.083       .  S
C1994      C1995   1.415       .  A
C1995      C1996   1.408       .  A
C1995      O1999   1.371       .  S
C1996      H2000   1.083       .  S
O1997      H2002   0.992   1_655  S
O1999      H2003   0.992       .  S
C2005      C2006   1.407       .  A
C2005      C2010   1.405       .  A
C2005      H2015   1.083       .  S
C2006      C2011   1.492       .  S
C2006      C2007   1.409       .  A
C2007      C2008   1.400       .  A
C2007      O2012   1.372       .  S
C2008      C2009   1.407       .  A
C2008      H2013   1.083       .  S
C2009      C2010   1.411       .  A
C2010      O2014   1.371       .  S
C2011      C2016   1.409       .  A
C2011      C2020   1.406       .  A
O2012      H2028   0.992       .  S
O2014      H2025   0.992       .  S
C2016      C2017   1.403       .  A
C2016      O2021   1.372       .  S
C2017      C2018   1.407       .  A
C2017      H2022   1.084       .  S
C2018      C2019   1.410       .  A
C2019      C2020   1.403       .  A
C2019      O2023   1.371       .  S
C2020      H2024   1.083       .  S
O2021      H2026   0.991       .  S
O2023      H2027   0.992       .  S
C2029      C2030   1.403       .  A
C2029      C2034   1.400       .  A
C2029      H2039   1.084       .  S
C2030      C2035   1.481       .  S
C2030      C2031   1.406       .  A
C2031      C2032   1.402       .  A
C2031      O2036   1.372       .  S
C2032      C2033   1.409       .  A
C2032      H2037   1.083       .  S
C2033      C2034   1.411       .  A
C2034      O2038   1.371       .  S
C2035      C2040   1.408       .  A
C2035      C2044   1.399       .  A
O2036      H2052   0.991       .  S
O2038      H2049   0.992       .  S
C2040      C2041   1.405       .  A
C2040      O2045   1.371       .  S
C2041      C2042   1.408       .  A
C2041      H2046   1.083       .  S
C2042      C2043   1.414       .  A
C2043      C2044   1.397       .  A
C2043      O2047   1.372       .  S
C2044      H2048   1.084       .  S
O2045      H2050   0.991       .  S
O2047      H2051   0.992       .  S
C2053      C2054   1.404       .  A
C2053      C2058   1.400       .  A
C2053      H2063   1.083       .  S
C2054      C2059   1.492       .  S
C2054      C2055   1.412       .  A
C2055      C2056   1.404       .  A
C2055      O2060   1.372       .  S
C2056      C2057   1.407       .  A
C2056      H2061   1.083       .  S
C2057      C2058   1.412       .  A
C2058      O2062   1.371       .  S
C2059      C2064   1.411       .  A
C2059      C2068   1.403       .  A
O2060      H2076   0.991       .  S
O2062      H2073   0.992       .  S
C2064      C2065   1.404       .  A
C2064      O2069   1.371       .  S
C2065      C2066   1.406       .  A
C2065      H2070   1.083       .  S
C2066      C2067   1.414       .  A
C2067      C2068   1.401       .  A
C2067      O2071   1.372       .  S
C2068      H2072   1.083       .  S
O2069      H2074   0.991       .  S
O2071      H2075   0.991       .  S
C2077      C2078   1.400       .  A
C2077      C2082   1.399       .  A
C2077      H2087   1.084       .  S
C2078      C2083   1.475       .  S
C2078      C2079   1.404       .  A
C2079      C2080   1.401       .  A
C2079      O2084   1.371       .  S
C2080      C2081   1.407       .  A
C2080      H2085   1.083       .  S
C2081      C2082   1.413       .  A
C2082      O2086   1.372       .  S
C2083      C2088   1.406       .  A
C2083      C2092   1.400       .  A
O2084      H2100   0.991       .  S
O2086      H2097   0.992       .  S
C2088      C2089   1.401       .  A
C2088      O2093   1.371       .  S
C2089      C2090   1.405       .  A
C2089      H2094   1.083       .  S
C2090      C2091   1.411       .  A
C2091      C2092   1.398       .  A
C2091      O2095   1.372       .  S
C2092      H2096   1.084       .  S
O2093      H2098   0.992       .  S
O2095      H2099   0.992       .  S
C2101      C2102   1.401       .  A
C2101      C2106   1.401       .  A
C2101      H2111   1.084       .  S
C2102      C2107   1.486       .  S
C2102      C2103   1.408       .  A
C2103      C2104   1.404       .  A
C2103      O2108   1.371       .  S
C2104      C2105   1.408       .  A
C2104      H2109   1.083       .  S
C2105      C2106   1.415       .  A
C2106      O2110   1.371       .  S
C2107      C2112   1.408       .  A
C2107      C2116   1.401       .  A
O2108      H2124   0.992       .  S
O2110      H2121   0.992       .  S
C2112      C2113   1.406       .  A
C2112      O2117   1.371       .  S
C2113      C2114   1.407       .  A
C2113      H2118   1.083       .  S
C2114      C2115   1.417       .  A
C2115      C2116   1.402       .  A
C2115      O2119   1.372       .  S
C2116      H2120   1.084       .  S
O2117      H2122   0.991       .  S
O2119      H2123   0.992       .  S
C2125      C2126   1.401       .  A
C2125      C2130   1.398       .  A
C2125      H2135   1.084       .  S
C2126      C2131   1.478       .  S
C2126      C2127   1.407       .  A
C2127      C2128   1.402       .  A
C2127      O2132   1.371       .  S
C2128      C2129   1.405       .  A
C2128      H2133   1.083       .  S
C2129      C2130   1.412       .  A
C2130      O2134   1.372       .  S
C2131      C2136   1.405       .  A
C2131      C2140   1.402       .  A
O2132      H2148   0.991       .  S
O2134      H2145   0.992       .  S
C2136      C2137   1.397       .  A
C2136      O2141   1.372       .  S
C2137      C2138   1.407       .  A
C2137      H2142   1.083       .  S
C2138      C2139   1.413       .  A
C2139      C2140   1.404       .  A
C2139      O2143   1.371       .  S
C2140      H2144   1.084       .  S
O2141      H2146   0.991       .  S
O2143      H2147   0.992       .  S
C2149      C2150   1.402       .  A
C2149      C2154   1.401       .  A
C2149      H2159   1.084       .  S
C2150      C2155   1.479       .  S
C2150      C2151   1.406       .  A
C2151      C2152   1.401       .  A
C2151      O2156   1.372       .  S
C2152      C2153   1.408       .  A
C2152      H2157   1.083       .  S
C2153      C2154   1.412       .  A
C2154      O2158   1.371       .  S
C2155      C2160   1.409       .  A
C2155      C2164   1.400       .  A
O2156      H2172   0.991       .  S
O2158      H2169   0.992       .  S
C2160      C2161   1.404       .  A
C2160      O2165   1.371       .  S
C2161      C2162   1.405       .  A
C2161      H2166   1.084       .  S
C2162      C2163   1.409       .  A
C2163      C2164   1.396       .  A
C2163      O2167   1.372   1_556  S
C2164      H2168   1.084       .  S
O2165      H2170   0.992       .  S
O2167      H2171   0.992       .  S
C2173      C2174   1.405       .  A
C2173      C2178   1.404       .  A
C2173      H2183   1.083       .  S
C2174      C2179   1.497       .  S
C2174      C2175   1.413       .  A
C2175      C2176   1.403   1_556  A
C2175      O2180   1.371       .  S
C2176      C2177   1.404       .  A
C2176      H2181   1.083       .  S
C2177      C2178   1.415   1_554  A
C2178      O2182   1.372       .  S
C2179      C2184   1.413       .  A
C2179      C2188   1.405       .  A
O2180      H2196   0.992       .  S
O2182      H2193   0.992       .  S
C2184      C2185   1.408       .  A
C2184      O2189   1.372       .  S
C2185      C2186   1.407       .  A
C2185      H2190   1.083       .  S
C2186      C2187   1.413       .  A
C2187      C2188   1.400       .  A
C2187      O2191   1.371   1_556  S
C2188      H2192   1.083   1_556  S
O2189      H2194   0.992       .  S
O2191      H2195   0.991       .  S
