geometry optimzed in LAMMPS
_audit_creation_date              2020-12-01 
_audit_creation_method            'lammps2cif' 
_symmetry_space_group_name_H-M    'P1' 
_symmetry_Int_Tables_number       1 
_symmetry_cell_setting            triclinic 
loop_ 
_symmetry_equiv_pos_as_xyz 
  x,y,z 
_cell_length_a                    28.66191655 
_cell_length_b                    28.6630773859103 
_cell_length_c                    82.97107291975654 
_cell_angle_alpha                 90.38226078763313 
_cell_angle_beta                  89.95886507287278 
_cell_angle_gamma                 120.16407558418038 
loop_ 
_atom_site_label 
_atom_site_type_symbol 
_atom_site_fract_x 
_atom_site_fract_y 
_atom_site_fract_z 
_atom_site_charge 
O1          O  0.02981155  0.68119276  0.25625085    -0.71300
O2          O  0.02952971  0.81360637  0.24710146    -0.71500
O3          O  0.04773692  0.77052396  0.27323430    -0.71300
O4          O  0.01621264  0.72745050  0.22986771    -0.71400
O5          O  0.93008220  0.68784451  0.23444440    -0.71300
O6          O  0.96244127  0.72990850  0.27914368    -0.71300
O7          O  0.94389988  0.77136945  0.25255803    -0.71300
O8          O  0.94402107  0.64343480  0.26111303    -0.71500
V9          V  0.02924595  0.74730490  0.25174308     1.35200
V10         V  0.94689265  0.70884927  0.25676124     1.35200
C11         C  0.98540398  0.63915920  0.25989211     0.78000
C12         C  0.98539329  0.81397877  0.24829225     0.78000
C13         C  0.01141572  0.75925717  0.28351230     0.77900
C14         C  0.96869367  0.70168386  0.22454975     0.77900
O15         O  0.22591367  0.88498113  0.41637133    -0.71300
O16         O  0.09258268  0.88603648  0.42239793    -0.71500
O17         O  0.14002860  0.86578844  0.39761043    -0.71300
O18         O  0.17545241  0.90123512  0.44143373    -0.71400
O19         O  0.21758951  0.98685035  0.43608830    -0.71300
O20         O  0.18098900  0.95054612  0.39116668    -0.71300
O21         O  0.13621094  0.97128190  0.41653570    -0.71300
O22         O  0.26474225  0.97018144  0.41058498    -0.71500
V23         V  0.15942642  0.88606340  0.41930898     1.35200
V24         V  0.19907695  0.96793265  0.41366889     1.35200
C25         C  0.26853120  0.92897581  0.41288763     0.78000
C26         C  0.09274318  0.93008899  0.42042738     0.78000
C27         C  0.15246748  0.90123550  0.38698720     0.77900
C28         C  0.20187921  0.94929414  0.44641145     0.77900
O29         O  0.88378577  0.24139006  0.26148635    -0.71300
O30         O  0.88632434  0.11056372  0.25080737    -0.71500
O31         O  0.87016982  0.15250713  0.27783100    -0.71300
O32         O  0.89482794  0.19573954  0.23445863    -0.71400
O33         O  0.98156927  0.23795252  0.23814366    -0.71300
O34         O  0.95616200  0.19440781  0.28288724    -0.71300
O35         O  0.97261182  0.15493462  0.25535527    -0.71300
O36         O  0.97009459  0.28068785  0.26573965    -0.71500
V37         V  0.88535481  0.17596168  0.25630024     1.35200
V38         V  0.96832287  0.21623379  0.26049263     1.35200
C39         C  0.92821429  0.28414262  0.26482856     0.78000
C40         C  0.93127638  0.11158977  0.25130930     0.78000
C41         C  0.90788076  0.16388273  0.28765579     0.77900
C42         C  0.94145589  0.22326982  0.22870332     0.77900
O43         O  0.66507677  0.03028007  0.41531703    -0.71300
O44         O  0.79595968  0.02782299  0.42427239    -0.71500
O45         O  0.75424254  0.04830040  0.39826130    -0.71300
O46         O  0.70998939  0.01454969  0.44133929    -0.71400
O47         O  0.66571265  0.92876558  0.43582581    -0.71300
O48         O  0.71774454  0.96343863  0.39195824    -0.71300
O49         O  0.75172065  0.94148838  0.41956365    -0.71300
O50         O  0.62790245  0.94608144  0.40812208    -0.71500
V51         V  0.73046375  0.02866047  0.41962750     1.35200
V52         V  0.69140154  0.94664083  0.41391004     1.35200
C53         C  0.62351356  0.98701500  0.41059866     0.78000
C54         C  0.79492659  0.98295801  0.42359013     0.78000
C55         C  0.74671022  0.01277226  0.38794744     0.77900
C56         C  0.68052127  0.96690518  0.44608051     0.77900
O57         O  0.32582699  0.06288610  0.59049594    -0.71300
O58         O  0.19067167  0.05930102  0.58278358    -0.71500
O59         O  0.25680436  0.08234804  0.60813310    -0.71300
O60         O  0.26089509  0.04462408  0.56478534    -0.71400
O61         O  0.21578706  0.95933661  0.57051279    -0.71300
O62         O  0.21355677  0.99813285  0.61515446    -0.71300
O63         O  0.14941076  0.97475978  0.58944846    -0.71300
O64         O  0.27938274  0.97793973  0.59655407    -0.71500
V65         V  0.25798968  0.06076131  0.58671026     1.35200
V66         V  0.21571501  0.97931322  0.59282314     1.35200
C67         C  0.32458136  0.01942754  0.59454010     0.78000
C68         C  0.14680218  0.01503419  0.58493118     0.78000
C69         C  0.23286349  0.04765771  0.61889749     0.77900
C70         C  0.23803318  0.99634501  0.56000809     0.77900
O71         O  0.32127428  0.27197894  0.74954535    -0.71300
O72         O  0.18506681  0.14015914  0.75570422    -0.71500
O73         O  0.25178218  0.18666069  0.73078749    -0.71300
O74         O  0.25540810  0.22195249  0.77460901    -0.71400
O75         O  0.20906488  0.26141378  0.76984948    -0.71300
O76         O  0.21241594  0.23194340  0.72446339    -0.71300
O77         O  0.14493126  0.18438231  0.74899449    -0.71300
O78         O  0.27603602  0.31292446  0.74532881    -0.71500
V79         V  0.25284331  0.20617291  0.75249971     1.35200
V80         V  0.21173144  0.24705048  0.74721858     1.35200
C81         C  0.32078643  0.31552727  0.74703708     0.78000
C82         C  0.14163834  0.14092023  0.75324633     0.78000
C83         C  0.23017595  0.20096341  0.72021665     0.77900
C84         C  0.23155006  0.24556544  0.77991466     0.77900
O85         O  0.61691769  0.91165992  0.59218466    -0.71300
O86         O  0.75023714  0.91195238  0.58460473    -0.71500
O87         O  0.69139618  0.90400191  0.61062345    -0.71300
O88         O  0.67524362  0.91523148  0.56609454    -0.71400
O89         O  0.71713097  0.00270062  0.56774804    -0.71300
O90         O  0.73797290  0.99125005  0.61321404    -0.71300
O91         O  0.79228526  0.99948109  0.58599368    -0.71300
O92         O  0.66407031  0.99876735  0.59488880    -0.71500
V93         V  0.68402174  0.91233491  0.58845933     1.35200
V94         V  0.72681830  0.99628503  0.59047157     1.35200
C95         C  0.61869577  0.95648374  0.59459698     0.78000
C96         C  0.79399952  0.95698836  0.58379621     0.78000
C97         C  0.71922628  0.94471295  0.61938946     0.77900
C98         C  0.69368643  0.95998877  0.55917966     0.77900
O99         O  0.60996472  0.71601103  0.74868910    -0.71300
O100        O  0.74402142  0.84862426  0.75593696    -0.71500
O101        O  0.67973410  0.80129026  0.73054309    -0.71300
O102        O  0.67273970  0.76668064  0.77428640    -0.71400
O103        O  0.71044940  0.71848381  0.76974025    -0.71300
O104        O  0.73077344  0.76715274  0.72541310    -0.71300
O105        O  0.78548332  0.80307567  0.75328410    -0.71300
O106        O  0.65666157  0.67861131  0.74164209    -0.71500
V107        V  0.67727471  0.78222071  0.75223377     1.35200
V108        V  0.71984413  0.74238530  0.74755325     1.35200
C109        C  0.61137031  0.67437799  0.74398169     0.78000
C110        C  0.78764562  0.84718891  0.75611021     0.78000
C111        C  0.70907956  0.79419481  0.72074051     0.77900
C112        C  0.68922996  0.73662207  0.77964315     0.77900
O113        O  0.66441117  0.63109937  0.92455325    -0.71300
O114        O  0.79562375  0.76429536  0.91523417    -0.71500
O115        O  0.75402931  0.70249506  0.94136954    -0.71300
O116        O  0.70920582  0.69140290  0.89827651    -0.71400
O117        O  0.66801690  0.73591715  0.90342489    -0.71300
O118        O  0.71520221  0.74827231  0.94790033    -0.71300
O119        O  0.75298883  0.80709244  0.92088765    -0.71300
O120        O  0.62671474  0.67837738  0.93057105    -0.71500
V121        V  0.72989264  0.69803809  0.92002052     1.35200
V122        V  0.69137770  0.74136785  0.92564501     1.35200
C123        C  0.62264918  0.63294762  0.92877230     0.78000
C124        C  0.79551860  0.80851962  0.91640039     0.78000
C125        C  0.74460833  0.72843963  0.95189466     0.77900
C126        C  0.68218460  0.71189589  0.89324654     0.77900
O127        O  0.88053137  0.62758697  0.08061508    -0.71300
O128        O  0.88322426  0.76184170  0.08856699    -0.71500
O129        O  0.86413164  0.69806355  0.06268488    -0.71300
O130        O  0.89482142  0.69023795  0.10630191    -0.71400
O131        O  0.98077506  0.72988444  0.10146626    -0.71300
O132        O  0.94944224  0.74600311  0.05708773    -0.71300
O133        O  0.96978498  0.80334298  0.08461988    -0.71300
O134        O  0.96502276  0.67386938  0.07391317    -0.71500
V135        V  0.88224585  0.69506855  0.08435051     1.35200
V136        V  0.96457828  0.73734668  0.07930638     1.35200
C137        C  0.92383991  0.62873185  0.07640050     0.78000
C138        C  0.92838715  0.80557059  0.08825916     0.78000
C139        C  0.90042634  0.72545771  0.05260839     0.77900
C140        C  0.94198488  0.70767935  0.11145521     0.77900
O141        O  0.22458206  0.33695875  0.92483006    -0.71300
O142        O  0.09412855  0.20229279  0.91565835    -0.71500
O143        O  0.13655043  0.26485073  0.94183112    -0.71300
O144        O  0.17878099  0.27528938  0.89852798    -0.71400
O145        O  0.22165163  0.23231936  0.90337325    -0.71300
O146        O  0.17736322  0.22064643  0.94780336    -0.71300
O147        O  0.13811348  0.16065510  0.92083992    -0.71300
O148        O  0.26379486  0.29091153  0.93035629    -0.71500
V149        V  0.15945644  0.26920226  0.92036484     1.35200
V150        V  0.19949610  0.22714358  0.92554791     1.35200
C151        C  0.26700818  0.33597094  0.92875960     0.78000
C152        C  0.09501885  0.15847202  0.91657963     0.78000
C153        C  0.14767099  0.23981714  0.95210004     0.77900
C154        C  0.20619610  0.25524388  0.89337035     0.77900
O155        O  0.03139881  0.33589579  0.08458310    -0.71300
O156        O  0.02629453  0.19989860  0.09053149    -0.71500
O157        O  0.04460471  0.26567442  0.06556484    -0.71300
O158        O  0.01715139  0.27098867  0.10960709    -0.71400
O159        O  0.93061707  0.22715783  0.10544941    -0.71300
O160        O  0.95901115  0.22408236  0.05992728    -0.71300
O161        O  0.94039097  0.15904107  0.08531121    -0.71300
O162        O  0.94496732  0.29098711  0.08021534    -0.71500
V163        V  0.02822299  0.26743997  0.08741892     1.35200
V164        V  0.94547580  0.22631846  0.08274154     1.35200
C165        C  0.98753467  0.33569352  0.08199826     0.78000
C166        C  0.98135256  0.15626371  0.08909569     0.78000
C167        C  0.00753904  0.24287293  0.05527142     0.77900
C168        C  0.97014849  0.24974229  0.11524247     0.77900
C169        C  0.06917526  0.22977522  0.98687866     0.20800
C170        C  0.02641900  0.22972915  0.99533995    -0.39000
C171        C  0.03031924  0.23102614  0.01226263     0.19800
C172        C  0.07408672  0.23305593  0.01996209     0.22500
C173        C  0.11635439  0.23238544  0.01152503    -0.39500
C174        C  0.11206933  0.23027290  0.99466769     0.21300
N175        N  0.07634224  0.23156670  0.97084662    -0.32800
C176        C  0.12375076  0.23266523  0.96832277    -0.10400
C177        C  0.14712268  0.23138285  0.98293208    -0.29200
N178        N  0.07019253  0.23695656  0.03595330    -0.45800
C179        C  0.02342881  0.23681115  0.03872194    -0.05100
C180        C  0.99692963  0.23276779  0.02417320    -0.22400
H181        H  0.99309152  0.22962875  0.98918252     0.19400
H182        H  0.15059172  0.23431690  0.01766620     0.18200
H183        H  0.18565673  0.23378222  0.98475050     0.14500
H184        H  0.95955769  0.23289746  0.02249833     0.14300
H185        H  0.05097221  0.23309079  0.96209647     0.32500
H186        H  0.09814053  0.23987117  0.04456582     0.35200
C187        C  0.94150384  0.43055045  0.08231705     0.20800
C188        C  0.90233154  0.44614716  0.08365873    -0.39000
C189        C  0.91924985  0.49969741  0.07959105     0.19800
C190        C  0.97136664  0.53483812  0.07457586     0.22500
C191        C  0.01084589  0.51936773  0.07339841    -0.39500
C192        C  0.99389137  0.46565327  0.07749844     0.21300
N193        N  0.93443075  0.38135688  0.08489232    -0.32800
C194        C  0.98235200  0.38441628  0.08173967    -0.10400
C195        C  0.02101233  0.43676979  0.07725023    -0.29200
N196        N  0.97781209  0.58387898  0.07190375    -0.45800
C197        C  0.92976568  0.58040804  0.07536512    -0.05100
C198        C  0.89199666  0.52822234  0.08015150    -0.22400
H199        H  0.86156342  0.41846086  0.08756940     0.19400
H200        H  0.05168693  0.54712728  0.06956398     0.18200
H201        H  0.06227677  0.45107175  0.07362967     0.14500
H202        H  0.85119234  0.51384255  0.08426472     0.14300
H203        H  0.89850005  0.34714101  0.08831121     0.32500
H204        H  0.01365361  0.61840973  0.06861820     0.35200
C205        C  0.92102892  0.92550504  0.09450719     0.20800
C206        C  0.89739306  0.95808239  0.09498002    -0.39000
C207        C  0.93348038  0.01400975  0.09444429     0.19800
C208        C  0.98892343  0.03615482  0.09361982     0.22500
C209        C  0.01252178  0.00363541  0.09324039    -0.39500
C210        C  0.97648402  0.94780220  0.09369477     0.21300
N211        N  0.89566435  0.87116499  0.09342025    -0.32800
C212        C  0.93558384  0.85924105  0.09176314    -0.10400
C213        C  0.98627784  0.90593538  0.09206823    -0.29200
N214        N  0.01409039  0.09025021  0.09214796    -0.45800
C215        C  0.97414041  0.10237745  0.09187833    -0.05100
C216        C  0.92353220  0.05597331  0.09338486    -0.22400
H217        H  0.85408010  0.94117448  0.09512064     0.19400
H218        H  0.05564986  0.02044254  0.09206257     0.18200
H219        H  0.02519475  0.90898621  0.09042996     0.14500
H220        H  0.88444367  0.05318728  0.09313460     0.14300
H221        H  0.85411482  0.84431505  0.09302438     0.32500
H222        H  0.05540537  0.11682081  0.09073597     0.35200
C223        C  0.48165584  0.53894698  0.93262355     0.20800
C224        C  0.42653292  0.52318133  0.93273581    -0.39000
C225        C  0.39021233  0.46738100  0.93232869     0.19800
C226        C  0.40801797  0.43059654  0.93210083     0.22500
C227        C  0.46306937  0.44635319  0.93182907    -0.39500
C228        C  0.49933512  0.50208833  0.93198394     0.21300
N229        N  0.52373465  0.58937195  0.93214762    -0.32800
C230        C  0.56868683  0.58504136  0.93093454    -0.10400
C231        C  0.55516595  0.53099556  0.93082940    -0.29200
N232        N  0.36607083  0.38019217  0.93131369    -0.45800
C233        C  0.32091205  0.38427930  0.93077885    -0.05100
C234        C  0.33422968  0.43829649  0.93140310    -0.22400
H235        H  0.41301438  0.55229595  0.93274968     0.19400
H236        H  0.47657083  0.41726662  0.93115732     0.18200
H237        H  0.58214585  0.51505706  0.92962439     0.14500
H238        H  0.30701596  0.45410590  0.93090028     0.14300
H239        H  0.52178459  0.62480813  0.93204056     0.32500
H240        H  0.36821073  0.34489789  0.93062659     0.35200
C241        C  0.92354365  0.92793462  0.91053632     0.20800
C242        C  0.97992007  0.96038863  0.91035443    -0.39000
C243        C  0.00012149  0.01635400  0.91057001     0.19800
C244        C  0.96702392  0.03867053  0.91090527     0.22500
C245        C  0.91071167  0.00624639  0.91108388    -0.39500
C246        C  0.89054220  0.95035111  0.91089387     0.21300
N247        N  0.89420404  0.87368247  0.91165645    -0.32800
C248        C  0.84226935  0.86188759  0.91288282    -0.10400
C249        C  0.83857813  0.90860547  0.91231517    -0.29200
N250        N  0.99629984  0.09286527  0.91228858    -0.45800
C251        C  0.04836779  0.10488194  0.91300759    -0.05100
C252        C  0.05222269  0.05828573  0.91183585    -0.22400
H253        H  0.00616929  0.94340675  0.91061771     0.19400
H254        H  0.88451195  0.02321765  0.91189894     0.18200
H255        H  0.80267399  0.91177234  0.91360812     0.14500
H256        H  0.08834737  0.05532428  0.91263709     0.14300
H257        H  0.90871519  0.84682264  0.91237623     0.32500
H258        H  0.98170886  0.11957395  0.91352136     0.35200
C259        C  0.82761458  0.73796577  0.98565252     0.20800
C260        C  0.87068729  0.73631430  0.99334061    -0.39000
C261        C  0.87115237  0.73829677  0.01029992     0.19800
C262        C  0.83099924  0.74079170  0.01882878     0.22500
C263        C  0.78833756  0.74319020  0.01113233    -0.39500
C264        C  0.78833764  0.74205991  0.99416717     0.21300
N265        N  0.81688188  0.73390754  0.96977436    -0.32800
C266        C  0.77079209  0.73596021  0.96793614    -0.10400
C267        C  0.75186110  0.74153783  0.98296207    -0.29200
N268        N  0.83804622  0.73812064  0.03474303    -0.45800
C269        C  0.88326758  0.73451451  0.03657325    -0.05100
C270        C  0.90553983  0.73502287  0.02151878    -0.22400
H271        H  0.90100685  0.73260763  0.98659133     0.19400
H272        H  0.75679541  0.74466977  0.01789270     0.18200
H273        H  0.71530278  0.74256282  0.98541633     0.14500
H274        H  0.94023713  0.73063838  0.01907332     0.14300
H275        H  0.83929611  0.72909507  0.96065345     0.32500
H276        H  0.81275332  0.73759486  0.04390063     0.35200
C277        C  0.66319409  0.73091504  0.82206753     0.20800
C278        C  0.64753178  0.74559810  0.83646639    -0.39000
C279        C  0.65654691  0.72520924  0.85075699     0.19800
C280        C  0.67902369  0.69235161  0.85052673     0.22500
C281        C  0.69479422  0.67781309  0.83613603    -0.39500
C282        C  0.68619472  0.69853355  0.82187364     0.21300
N283        N  0.66103170  0.74708229  0.80709100    -0.32800
C284        C  0.68297512  0.72531826  0.79716388    -0.10400
C285        C  0.69920532  0.69452153  0.80597174    -0.29200
N286        N  0.68718874  0.68138420  0.86560183    -0.45800
C287        C  0.67083215  0.70792692  0.87568513    -0.05100
C288        C  0.65067886  0.73537509  0.86683821    -0.22400
H289        H  0.63105132  0.77228705  0.83654895     0.19400
H290        H  0.71386868  0.65343012  0.83611583     0.18200
H291        H  0.71875827  0.67315856  0.80145536     0.14500
H292        H  0.63702811  0.76186802  0.87145664     0.14300
H293        H  0.64635922  0.77248970  0.80385252     0.32500
H294        H  0.70577652  0.65943956  0.86882708     0.35200
C295        C  0.74460942  0.89103348  0.65473228     0.20800
C296        C  0.75390462  0.85385168  0.66313706    -0.39000
C297        C  0.73973406  0.84693046  0.67952795     0.19800
C298        C  0.71772504  0.87495602  0.68681560     0.22500
C299        C  0.70885974  0.91245874  0.67846639    -0.39500
C300        C  0.72329151  0.91958475  0.66211149     0.21300
N301        N  0.74959059  0.90049375  0.63882323    -0.32800
C302        C  0.73172310  0.93544018  0.63590953    -0.10400
C303        C  0.71519298  0.94869747  0.65021276    -0.29200
N304        N  0.70467201  0.85916895  0.70213404    -0.45800
C305        C  0.71835049  0.82083615  0.70484592    -0.05100
C306        C  0.74096668  0.81231630  0.69099447    -0.22400
H307        H  0.76938174  0.83070419  0.65719453     0.19400
H308        H  0.69037370  0.93320906  0.68417849     0.18200
H309        H  0.69540628  0.97222615  0.65151412     0.14500
H310        H  0.75504166  0.78392848  0.68939678     0.14300
H311        H  0.76130085  0.88158809  0.63022574     0.32500
H312        H  0.68694559  0.87351527  0.71029939     0.35200
C313        C  0.20832136  0.26993932  0.85063588     0.20800
C314        C  0.19223858  0.28142975  0.83589189    -0.39000
C315        C  0.21087230  0.26793998  0.82199564     0.19800
C316        C  0.24297284  0.24467048  0.82282863     0.22500
C317        C  0.25877196  0.23281973  0.83758959    -0.39500
C318        C  0.24013969  0.24635798  0.85150308     0.21300
N319        N  0.19441219  0.27740344  0.86543548    -0.32800
C320        C  0.21685478  0.25803882  0.87590561    -0.10400
C321        C  0.24608791  0.23848128  0.86767466    -0.29200
N322        N  0.25470275  0.23497728  0.80797225    -0.45800
C323        C  0.23008172  0.25215097  0.79753614    -0.05100
C324        C  0.20211646  0.27293089  0.80584231    -0.22400
H325        H  0.16664034  0.29910928  0.83530241     0.19400
H326        H  0.28325718  0.21390652  0.83817708     0.18200
H327        H  0.26729633  0.21967159  0.87276023     0.14500
H328        H  0.17803542  0.28865360  0.80078713     0.14300
H329        H  0.16952273  0.29324963  0.86822246     0.32500
H330        H  0.27763617  0.21700459  0.80509972     0.35200
C331        C  0.01908289  0.01582341  0.75966988     0.20800
C332        C  0.98509952  0.96102203  0.76313925    -0.39000
C333        C  0.92948199  0.94188682  0.76166039     0.19800
C334        C  0.90902392  0.97455378  0.75710101     0.22500
C335        C  0.94291919  0.02909572  0.75356339    -0.39500
C336        C  0.99830430  0.04813749  0.75505669     0.21300
N337        N  0.07358295  0.04400238  0.75975502    -0.32800
C338        C  0.08694110  0.09443810  0.75510408    -0.10400
C339        C  0.04109303  0.09826994  0.75212895    -0.29200
N340        N  0.85493076  0.94591297  0.75561081    -0.45800
C341        C  0.84101821  0.89449413  0.75908785    -0.05100
C342        C  0.88632048  0.89055118  0.76299095    -0.22400
H343        H  0.00071300  0.93495016  0.76641380     0.19400
H344        H  0.92740076  0.05466191  0.74963839     0.18200
H345        H  0.03934032  0.13330353  0.74819539     0.14500
H346        H  0.88770640  0.85426415  0.76552725     0.14300
H347        H  0.09975122  0.02987925  0.76265688     0.32500
H348        H  0.82963163  0.95974272  0.75148127     0.35200
C349        C  0.41388165  0.45710736  0.74758529     0.20800
C350        C  0.42902179  0.51163102  0.74965099    -0.39000
C351        C  0.48223401  0.54928647  0.74546271     0.19800
C352        C  0.51736346  0.53347635  0.73957400     0.22500
C353        C  0.50222817  0.47877487  0.73756311    -0.39500
C354        C  0.44898383  0.44098594  0.74188723     0.21300
N355        N  0.36542450  0.41414367  0.75050856    -0.32800
C356        C  0.36901797  0.36990930  0.74675342    -0.10400
C357        C  0.42089751  0.38486076  0.74141338    -0.29200
N358        N  0.56642530  0.57672042  0.73734072    -0.45800
C359        C  0.56301288  0.62045636  0.74201113    -0.05100
C360        C  0.51078080  0.60498218  0.74702934    -0.22400
H361        H  0.40147528  0.52376567  0.75437373     0.19400
H362        H  0.53011452  0.46661290  0.73316574     0.18200
H363        H  0.43538105  0.35863435  0.73717675     0.14500
H364        H  0.49655070  0.63046133  0.75209239     0.14300
H365        H  0.33131241  0.41488550  0.75461554     0.32500
H366        H  0.60105373  0.57619412  0.73367595     0.35200
C367        C  0.02470859  0.01848790  0.57876694     0.20800
C368        C  0.99109630  0.04030962  0.57639452    -0.39000
C369        C  0.93538774  0.00363924  0.57751790     0.19800
C370        C  0.91435128  0.94934743  0.58076262     0.22500
C371        C  0.94790715  0.92755579  0.58309583    -0.39500
C372        C  0.00347790  0.96415392  0.58195368     0.21300
N373        N  0.07922939  0.04495877  0.57907192    -0.32800
C374        C  0.09225666  0.00673398  0.58250055    -0.10400
C375        C  0.04609420  0.95616546  0.58432173    -0.29200
N376        N  0.86029280  0.92402285  0.58250751    -0.45800
C377        C  0.84713016  0.96285471  0.58051939    -0.05100
C378        C  0.89276820  0.01265528  0.57721607    -0.22400
H379        H  0.00706964  0.08290737  0.57430273     0.19400
H380        H  0.93205661  0.88551459  0.58604036     0.18200
H381        H  0.04401428  0.91848993  0.58736672     0.14500
H382        H  0.89481794  0.05114928  0.57575918     0.14300
H383        H  0.10558461  0.08616906  0.57741896     0.32500
H384        H  0.83464272  0.88393526  0.58579418     0.35200
C385        C  0.52582396  0.00501819  0.59736379     0.20800
C386        C  0.51086713  0.04484136  0.59671529    -0.39000
C387        C  0.45529272  0.02607701  0.59719784     0.19800
C388        C  0.41790119  0.97171243  0.59847220     0.22500
C389        C  0.43284795  0.93181001  0.59902898    -0.38300
C390        C  0.48845126  0.95055086  0.59831667     0.21300
N391        N  0.57582984  0.01269080  0.59637524    -0.32800
C392        C  0.57094395  0.96302786  0.59648264    -0.10400
C393        C  0.51674151  0.92286799  0.59771909    -0.29200
N394        N  0.36772908  0.96392162  0.59816964    -0.45800
C395        C  0.37260272  0.01333063  0.59645578    -0.05100
C396        C  0.42691686  0.05345243  0.59586088    -0.22400
H397        H  0.54039065  0.08725791  0.59553540     0.19400
H398        H  0.40322611  0.88924031  0.59959312     0.18200
H399        H  0.50026186  0.87962908  0.59782147     0.14500
H400        H  0.44333663  0.09633683  0.59425660     0.14300
H401        H  0.61134652  0.04982792  0.59521186     0.32500
H402        H  0.33200915  0.92668690  0.59856878     0.35200
C403        C  0.22245788  0.12060624  0.65273380     0.20800
C404        C  0.22304537  0.16471834  0.66061393    -0.39000
C405        C  0.22068558  0.16258383  0.67755538     0.19800
C406        C  0.21848383  0.11978975  0.68582200     0.22500
C407        C  0.21689165  0.07534758  0.67794956    -0.39500
C408        C  0.21871715  0.07722197  0.66105381     0.21300
N409        N  0.22732381  0.11453404  0.63686262    -0.32800
C410        C  0.22620452  0.06682324  0.63492123    -0.10400
C411        C  0.22027459  0.04192998  0.64979241    -0.29200
N412        N  0.22052423  0.12862760  0.70175191    -0.45800
C413        C  0.22361855  0.17709820  0.70390097    -0.05100
C414        C  0.22319174  0.19955215  0.68901817    -0.22400
H415        H  0.22642509  0.19876698  0.65403962     0.19400
H416        H  0.21565379  0.04230385  0.68455003     0.18200
H417        H  0.21936232  0.00437657  0.65211488     0.14500
H418        H  0.22677495  0.23841345  0.68685956     0.14300
H419        H  0.23174090  0.14167003  0.62782846     0.32500
H420        H  0.22072256  0.10333081  0.71073075     0.35200
C421        C  0.66164797  0.93114576  0.48775638     0.20800
C422        C  0.66249778  0.90313960  0.50148628    -0.39000
C423        C  0.67219283  0.93101766  0.51624750     0.19800
C424        C  0.68084344  0.98300079  0.51734212     0.22500
C425        C  0.67958700  0.01082647  0.50365108    -0.39500
C426        C  0.66968077  0.98289552  0.48890682     0.21300
N427        N  0.65906355  0.91604258  0.47217900    -0.32800
C428        C  0.66635869  0.95887119  0.46337293    -0.10400
C429        C  0.67215378  0.00078016  0.47343951    -0.29200
N430        N  0.69093112  0.00114975  0.53271315    -0.45800
C431        C  0.68792733  0.96003682  0.54148822    -0.05100
C432        C  0.67642599  0.91578852  0.53161475    -0.22400
H433        H  0.65747131  0.86315402  0.50070007     0.19400
H434        H  0.68745939  0.05188683  0.50434549     0.18200
H435        H  0.68190033  0.04096217  0.46989518     0.14500
H436        H  0.67189496  0.87751132  0.53523470     0.14300
H437        H  0.65733586  0.88080095  0.46784563     0.32500
H438        H  0.69859709  0.03877155  0.53699212     0.35200
C439        C  0.84260838  0.08006548  0.32176555     0.20800
C440        C  0.80104680  0.03439519  0.32954457    -0.39000
C441        C  0.79733534  0.03878858  0.34634167     0.19800
C442        C  0.83220421  0.08558559  0.35461566     0.22500
C443        C  0.87420657  0.13101086  0.34687194    -0.39500
C444        C  0.87831058  0.12639687  0.33009865     0.21300
N445        N  0.85141751  0.08739315  0.30582508    -0.32800
C446        C  0.89320998  0.13849071  0.30380474    -0.10400
C447        C  0.91160903  0.16409933  0.31875957    -0.29200
N448        N  0.81831037  0.08116355  0.37024358    -0.45800
C449        C  0.77450786  0.03115045  0.37215439    -0.05100
C450        C  0.76042342  0.00311462  0.35746102    -0.22400
H451        H  0.77269694  0.99859201  0.32291289     0.19400
H452        H  0.90078371  0.16783395  0.35338608     0.18200
H453        H  0.94212156  0.20573434  0.32096592     0.14500
H454        H  0.72678139  0.96305627  0.35511089     0.14300
H455        H  0.82863870  0.05993815  0.29672896     0.32500
H456        H  0.83731109  0.11086954  0.37912902     0.35200
C457        C  0.97886810  0.25875214  0.18727899     0.20800
C458        C  0.01295904  0.27633211  0.17380614    -0.39000
C459        C  0.98719579  0.26536677  0.15870630     0.19800
C460        C  0.93164221  0.23895192  0.15698810     0.22500
C461        C  0.89746421  0.22174667  0.17048987    -0.39500
C462        C  0.92329006  0.23263392  0.18562771     0.21300
N463        N  0.99325442  0.26086494  0.20288024    -0.32800
C464        C  0.94641700  0.23563178  0.21124923    -0.10400
C465        C  0.90207486  0.21796982  0.20087766    -0.29200
N466        N  0.91738953  0.23057512  0.14124139    -0.45800
C467        C  0.96442981  0.25184795  0.13293923    -0.05100
C468        C  0.00856553  0.27406790  0.14346594    -0.22400
H469        H  0.05638023  0.29566999  0.17495805     0.19400
H470        H  0.85395584  0.19999421  0.16930170     0.18200
H471        H  0.85974542  0.19519104  0.20401935     0.14500
H472        H  0.05085211  0.29253520  0.14036536     0.14300
H473        H  0.03231588  0.27660015  0.20745694     0.32500
H474        H  0.87830809  0.21046276  0.13648465     0.35200
C475        C  0.20477885  0.94115134  0.48952092     0.20800
C476        C  0.18850146  0.91548066  0.50456253    -0.39000
C477        C  0.21242896  0.94834897  0.51818713     0.19800
C478        C  0.24972884  0.00272121  0.51684992     0.22500
C479        C  0.26599550  0.02848140  0.50177801    -0.39500
C480        C  0.24190607  0.99556099  0.48812803     0.21300
N481        N  0.18689500  0.91877589  0.47491249    -0.32800
C482        C  0.21217803  0.95891821  0.46398940    -0.10400
C483        C  0.24709504  0.00768485  0.47178960    -0.29200
N484        N  0.26470572  0.02555209  0.53155846    -0.45800
C485        C  0.23689387  0.98568616  0.54242717    -0.05100
C486        C  0.20388107  0.93672778  0.53450115    -0.22400
H487        H  0.15870892  0.87308681  0.50557672     0.19400
H488        H  0.29461032  0.07121183  0.50077806     0.18200
H489        H  0.27248453  0.04658249  0.46630007     0.14500
H490        H  0.17576078  0.89845540  0.53989647     0.14300
H491        H  0.15836402  0.87844677  0.47252132     0.32500
H492        H  0.29115117  0.06634153  0.53405444     0.35200
C493        C  0.39097467  0.92439062  0.40875497     0.20800
C494        C  0.42467482  0.90311610  0.40540459    -0.39000
C495        C  0.48046972  0.93957358  0.40679288     0.19800
C496        C  0.50146598  0.99303467  0.41132508     0.22500
C497        C  0.46783483  0.01441430  0.41451637    -0.39500
C498        C  0.41216426  0.97816204  0.41295224     0.21300
N499        N  0.33642510  0.89827744  0.40846904    -0.32800
C500        C  0.32324972  0.93625652  0.41232657    -0.10400
C501        C  0.36938517  0.98629152  0.41513544    -0.29200
N502        N  0.55575450  0.01842462  0.41262967    -0.45800
C503        C  0.56934850  0.98074694  0.40879282    -0.05100
C504        C  0.52343946  0.93133704  0.40502902    -0.22400
H505        H  0.40871499  0.86117817  0.40212615     0.19400
H506        H  0.48374910  0.05610416  0.41809015     0.18200
H507        H  0.37125097  0.02383743  0.41839023     0.14500
H508        H  0.52157291  0.89354398  0.40214452     0.14300
H509        H  0.31009835  0.85780118  0.40555155     0.32500
H510        H  0.58157359  0.05809536  0.41645094     0.35200
C511        C  0.96490979  0.92257745  0.42589235     0.20800
C512        C  0.90908774  0.89948567  0.42814365    -0.39000
C513        C  0.88957528  0.93578277  0.42809398     0.19800
C514        C  0.92278549  0.99078610  0.42590884     0.22500
C515        C  0.97834336  0.01370347  0.42354790    -0.39500
C516        C  0.99780503  0.97757389  0.42367308     0.21300
N517        N  0.99382752  0.89717739  0.42518703    -0.32800
C518        C  0.04538687  0.93677344  0.42249653    -0.10400
C519        C  0.04909559  0.98708999  0.42146401    -0.29200
N520        N  0.89390846  0.01604148  0.42523171    -0.45800
C521        C  0.84181534  0.97659772  0.42680612    -0.05100
C522        C  0.83767380  0.92624169  0.42877166    -0.22400
H523        H  0.88266090  0.85644695  0.42953434     0.19400
H524        H  0.00445453  0.05644835  0.42148484     0.18200
H525        H  0.08483980  0.02574740  0.41926583     0.14500
H526        H  0.80113914  0.88730597  0.42952024     0.14300
H527        H  0.97946286  0.85588952  0.42629085     0.32500
H528        H  0.90832492  0.05670323  0.42275245     0.35200
C529        C  0.99142959  0.51732735  0.26480884     0.20800
C530        C  0.01415611  0.48400763  0.26603989    -0.39000
C531        C  0.97728279  0.42816864  0.26692012     0.19800
C532        C  0.92190335  0.40656273  0.26640708     0.22500
C533        C  0.89918612  0.43992531  0.26537287    -0.39500
C534        C  0.93603897  0.49578150  0.26468053     0.21300
N535        N  0.01749418  0.57165394  0.26322048    -0.32800
C536        C  0.97808982  0.58459897  0.26222297    -0.10400
C537        C  0.92706175  0.53828963  0.26316354    -0.29200
N538        N  0.89587600  0.35194763  0.26622602    -0.45800
C539        C  0.93523431  0.33884994  0.26673362    -0.05100
C540        C  0.98624324  0.38543082  0.26732165    -0.22400
H541        H  0.05736312  0.50019422  0.26599896     0.19400
H542        H  0.85599451  0.42362500  0.26482653     0.18200
H543        H  0.88823079  0.53595218  0.26243404     0.14500
H544        H  0.02510352  0.38770197  0.26717723     0.14300
H545        H  0.05911881  0.59798169  0.26271828     0.32500
H546        H  0.85434778  0.32550263  0.26525430     0.35200
C547        C  0.92526073  0.98478630  0.24401296     0.20800
C548        C  0.90216805  0.92861875  0.24250377    -0.39000
C549        C  0.93850503  0.90911853  0.24286649     0.19800
C550        C  0.99370942  0.94262212  0.24460584     0.22500
C551        C  0.01676766  0.99872425  0.24609741    -0.39500
C552        C  0.98048591  0.01819557  0.24569600     0.21300
N553        N  0.89944543  0.01330148  0.24514360    -0.32800
C554        C  0.93884012  0.06521489  0.24764621    -0.10400
C555        C  0.98965315  0.06955955  0.24791372    -0.29200
N556        N  0.01893133  0.91365269  0.24582932    -0.45800
C557        C  0.97922950  0.86123918  0.24500126    -0.05100
C558        C  0.92880811  0.85708925  0.24303440    -0.22400
H559        H  0.85896881  0.90185743  0.24164445     0.19400
H560        H  0.05965059  0.02520523  0.24794907     0.18200
H561        H  0.02825327  0.10547672  0.25017629     0.14500
H562        H  0.88975270  0.82055696  0.24268024     0.14300
H563        H  0.85785118  0.99819665  0.24488530     0.32500
H564        H  0.05989560  0.92844328  0.24802917     0.35200
C565        C  0.07745824  0.83129228  0.35167524     0.20800
C566        C  0.03493759  0.78861185  0.34308607    -0.39000
C567        C  0.03724807  0.79330448  0.32623973     0.19800
C568        C  0.07944403  0.83684750  0.31860990     0.22500
C569        C  0.12160783  0.87995333  0.32721103    -0.39500
C570        C  0.11874903  0.87572672  0.34409144     0.21300
N571        N  0.08495249  0.83550069  0.36769761    -0.32800
C572        C  0.13081163  0.88325741  0.37051172    -0.10400
C573        C  0.15308290  0.90986193  0.35604171    -0.29200
N574        N  0.07422808  0.83023082  0.30255075    -0.45800
C575        C  0.02809774  0.78257629  0.29984377    -0.05100
C576        C  0.00349639  0.75841339  0.31435602    -0.22400
H577        H  0.00273761  0.75396701  0.34909480     0.19400
H578        H  0.15451817  0.91395126  0.32118454     0.18200
H579        H  0.18987975  0.94809879  0.35445620     0.14500
H580        H  0.96745433  0.71957937  0.31599655     0.14300
H581        H  0.06011401  0.80746410  0.37627654     0.32500
H582        H  0.10099620  0.85621625  0.29389898     0.35200
C583        C  0.98294823  0.69869746  0.18184198     0.20800
C584        C  0.01195258  0.71397792  0.16727814    -0.39000
C585        C  0.98110117  0.70458163  0.15323035     0.19800
C586        C  0.92558003  0.68128418  0.15378821     0.22500
C587        C  0.89657438  0.66591685  0.16833472    -0.39500
C588        C  0.92744757  0.67572328  0.18237901     0.21300
N589        N  0.00343644  0.70766342  0.19681042    -0.32800
C590        C  0.96103280  0.69102059  0.20703515    -0.10400
C591        C  0.91265891  0.67021047  0.19847235    -0.29200
N592        N  0.90572561  0.67900166  0.13900204    -0.45800
C593        C  0.94859367  0.70124784  0.12883686    -0.05100
C594        C  0.99658683  0.71757117  0.13726945    -0.22400
H595        H  0.05552207  0.73343451  0.16697697     0.19400
H596        H  0.85331185  0.64924321  0.16871297     0.18200
H597        H  0.87272152  0.65614266  0.20330319     0.14500
H598        H  0.03715859  0.73740007  0.13248748     0.14300
H599        H  0.04429847  0.72667196  0.19987466     0.32500
H600        H  0.86525196  0.66429093  0.13605982     0.35200
loop_ 
_geom_bond_atom_site_label_1 
_geom_bond_atom_site_label_2 
_geom_bond_distance 
_geom_bond_site_symmetry_2 
_ccdc_geom_bond_type 
O1            V9   1.942       .  S
O1           C11   1.275   1_455  A
O2            V9   1.938       .  S
O2           C12   1.274   1_455  A
O3            V9   1.880       .  S
O3           C13   1.257       .  A
O4            V9   1.879       .  S
O4           C14   1.257   1_455  A
O5           V10   1.928       .  S
O5           C14   1.272       .  A
O6           V10   1.931       .  S
O6           C13   1.273   1_655  A
O7           V10   1.872       .  S
O7           C12   1.256       .  A
O8           V10   1.873       .  S
O8           C11   1.256       .  A
V9           V10   2.086   1_455  T
C11         C536   1.484       .  S
C12         C557   1.479       .  S
C13         C575   1.476       .  S
C14         C590   1.477       .  S
O15          V23   1.937       .  S
O15          C25   1.274       .  A
O16          V23   1.932       .  S
O16          C26   1.272       .  A
O17          V23   1.884       .  S
O17          C27   1.258       .  A
O18          V23   1.887       .  S
O18          C28   1.259       .  A
O19          V24   1.933       .  S
O19          C28   1.273       .  A
O20          V24   1.932       .  S
O20          C27   1.272       .  A
O21          V24   1.867       .  S
O21          C26   1.256       .  A
O22          V24   1.868       .  S
O22          C25   1.255       .  A
V23          V24   2.086       .  T
C25         C500   1.475       .  S
C26         C518   1.473       .  S
C27         C572   1.480       .  S
C28         C482   1.485       .  S
O29          V37   1.944       .  S
O29          C39   1.276       .  A
O30          V37   1.940       .  S
O30          C40   1.275       .  A
O31          V37   1.885       .  S
O31          C41   1.258       .  A
O32          V37   1.881       .  S
O32          C42   1.257       .  A
O33          V38   1.936       .  S
O33          C42   1.274       .  A
O34          V38   1.939       .  S
O34          C41   1.274       .  A
O35          V38   1.868       .  S
O35          C40   1.255       .  A
O36          V38   1.871       .  S
O36          C39   1.255       .  A
V37          V38   2.085       .  T
C39         C539   1.485       .  S
C40         C554   1.480       .  S
C41         C446   1.485       .  S
C42         C464   1.483       .  S
O43          V51   1.932       .  S
O43          C53   1.273   1_545  A
O44          V51   1.929       .  S
O44          C54   1.272   1_545  A
O45          V51   1.884       .  S
O45          C55   1.258       .  A
O46          V51   1.877       .  S
O46          C56   1.257   1_545  A
O47          V52   1.935       .  S
O47          C56   1.273       .  A
O48          V52   1.940       .  S
O48          C55   1.275   1_565  A
O49          V52   1.868       .  S
O49          C54   1.255       .  A
O50          V52   1.875       .  S
O50          C53   1.257       .  A
V51          V52   2.085   1_545  T
C53         C503   1.478       .  S
C54         C521   1.469       .  S
C55         C449   1.488       .  S
C56         C428   1.479       .  S
O57          V65   1.940       .  S
O57          C67   1.275       .  A
O58          V65   1.937       .  S
O58          C68   1.274       .  A
O59          V65   1.884       .  S
O59          C69   1.258       .  A
O60          V65   1.886       .  S
O60          C70   1.258   1_545  A
O61          V66   1.934       .  S
O61          C70   1.274       .  A
O62          V66   1.936       .  S
O62          C69   1.274   1_565  A
O63          V66   1.860       .  S
O63          C68   1.253   1_565  A
O64          V66   1.871       .  S
O64          C67   1.255   1_565  A
V65          V66   2.085   1_545  T
C67         C395   1.481       .  S
C68         C374   1.472       .  S
C69         C410   1.484       .  S
C70         C485   1.485       .  S
O71          V79   1.937       .  S
O71          C81   1.274       .  A
O72          V79   1.933       .  S
O72          C82   1.272       .  A
O73          V79   1.878       .  S
O73          C83   1.258       .  A
O74          V79   1.879       .  S
O74          C84   1.257       .  A
O75          V80   1.929       .  S
O75          C84   1.272       .  A
O76          V80   1.937       .  S
O76          C83   1.273       .  A
O77          V80   1.860       .  S
O77          C82   1.254       .  A
O78          V80   1.869       .  S
O78          C81   1.255       .  A
V79          V80   2.085       .  T
C81         C356   1.475       .  S
C82         C338   1.470       .  S
C83         C413   1.481       .  S
C84         C323   1.476       .  S
O85          V93   1.938       .  S
O85          C95   1.274       .  A
O86          V93   1.930       .  S
O86          C96   1.272       .  A
O87          V93   1.882       .  S
O87          C97   1.257       .  A
O88          V93   1.881       .  S
O88          C98   1.258       .  A
O89          V94   1.929   1_545  S
O89          C98   1.272   1_545  A
O90          V94   1.932       .  S
O90          C97   1.272       .  A
O91          V94   1.869       .  S
O91          C96   1.255       .  A
O92          V94   1.871       .  S
O92          C95   1.256       .  A
V93          V94   2.086       .  T
C95         C392   1.480       .  S
C96         C377   1.471       .  S
C97         C302   1.476       .  S
C98         C431   1.477       .  S
O99         V107   1.930       .  S
O99         C109   1.273       .  A
O100        V107   1.926       .  S
O100        C110   1.272       .  A
O101        V107   1.875       .  S
O101        C111   1.257       .  A
O102        V107   1.875       .  S
O102        C112   1.256       .  A
O103        V108   1.939       .  S
O103        C112   1.275       .  A
O104        V108   1.942       .  S
O104        C111   1.275       .  A
O105        V108   1.869       .  S
O105        C110   1.255       .  A
O106        V108   1.877       .  S
O106        C109   1.257       .  A
V107        V108   2.082       .  T
C109        C359   1.477       .  S
C110        C341   1.467       .  S
C111        C305   1.484       .  S
C112        C284   1.483       .  S
O113        V121   1.933       .  S
O113        C123   1.273       .  A
O114        V121   1.931       .  S
O114        C124   1.272       .  A
O115        V121   1.882       .  S
O115        C125   1.258       .  A
O116        V121   1.878       .  S
O116        C126   1.257       .  A
O117        V122   1.940       .  S
O117        C126   1.275       .  A
O118        V122   1.943       .  S
O118        C125   1.276       .  A
O119        V122   1.868       .  S
O119        C124   1.255       .  A
O120        V122   1.873       .  S
O120        C123   1.256       .  A
V121        V122   2.085       .  T
C123        C230   1.476       .  S
C124        C248   1.472       .  S
C125        C266   1.489       .  S
C126        C287   1.484       .  S
O127        V135   1.933       .  S
O127        C137   1.274       .  A
O128        V135   1.930       .  S
O128        C138   1.272       .  A
O129        V135   1.886       .  S
O129        C139   1.259       .  A
O130        V135   1.876       .  S
O130        C140   1.257       .  A
O131        V136   1.936       .  S
O131        C140   1.274       .  A
O132        V136   1.940       .  S
O132        C139   1.275       .  A
O133        V136   1.871       .  S
O133        C138   1.256       .  A
O134        V136   1.877       .  S
O134        C137   1.256       .  A
V135        V136   2.084       .  T
C137        C197   1.480       .  S
C138        C212   1.473       .  S
C139        C269   1.488       .  S
C140        C593   1.479       .  S
O141        V149   1.934       .  S
O141        C151   1.273       .  A
O142        V149   1.928       .  S
O142        C152   1.272       .  A
O143        V149   1.881       .  S
O143        C153   1.257       .  A
O144        V149   1.878       .  S
O144        C154   1.257       .  A
O145        V150   1.928       .  S
O145        C154   1.272       .  A
O146        V150   1.932       .  S
O146        C153   1.273       .  A
O147        V150   1.871       .  S
O147        C152   1.256       .  A
O148        V150   1.871       .  S
O148        C151   1.256       .  A
V149        V150   2.086       .  T
C151        C233   1.476       .  S
C152        C251   1.472       .  S
C153        C176   1.478       .  S
C154        C320   1.475       .  S
O155        V163   1.934       .  S
O155        C165   1.273   1_455  A
O156        V163   1.928       .  S
O156        C166   1.272   1_455  A
O157        V163   1.879       .  S
O157        C167   1.257       .  A
O158        V163   1.879       .  S
O158        C168   1.258   1_455  A
O159        V164   1.934       .  S
O159        C168   1.273       .  A
O160        V164   1.939       .  S
O160        C167   1.274   1_655  A
O161        V164   1.873       .  S
O161        C166   1.256       .  A
O162        V164   1.874       .  S
O162        C165   1.257       .  A
V163        V164   2.086   1_455  T
C165        C194   1.477       .  S
C166        C215   1.472       .  S
C167        C179   1.483       .  S
C168        C467   1.482       .  S
C169        C174   1.383       .  A
C169        C170   1.411       .  A
C169        N175   1.343       .  A
C170        C171   1.407   1_556  A
C170        H181   1.082   1_455  S
C171        C180   1.393   1_455  A
C171        C172   1.383       .  A
C172        C173   1.407       .  A
C172        N178   1.340       .  A
C173        C174   1.402   1_554  A
C173        H182   1.082       .  S
C174        C177   1.388       .  A
N175        C176   1.359       .  A
N175        H185   1.044       .  S
C176        C177   1.395       .  A
C177        H183   1.082       .  S
N178        C179   1.358       .  A
N178        H186   1.045       .  S
C179        C180   1.399   1_455  A
C180        H184   1.082       .  S
C187        C192   1.383       .  A
C187        C188   1.406       .  A
C187        N193   1.339       .  A
C188        C189   1.401       .  A
C188        H199   1.082       .  S
C189        C198   1.386       .  A
C189        C190   1.383       .  A
C190        C191   1.411   1_655  A
C190        N196   1.342       .  A
C191        C192   1.406   1_455  A
C191        H200   1.082       .  S
C192        C195   1.392   1_655  A
N193        C194   1.357       .  A
N193        H203   1.045       .  S
C194        C195   1.398   1_655  A
C195        H201   1.082       .  S
N196        C197   1.360       .  A
N196        H204   1.044   1_655  S
C197        C198   1.395       .  A
C198        H202   1.082       .  S
C205        C210   1.385       .  A
C205        C206   1.403       .  A
C205        N211   1.350       .  A
C206        C207   1.406   1_565  A
C206        H217   1.082       .  S
C207        C216   1.372       .  A
C207        C208   1.385       .  A
C208        C209   1.400   1_655  A
C208        N214   1.348   1_655  A
C209        C210   1.403   1_445  A
C209        H218   1.082       .  S
C210        C213   1.369       .  A
N211        C212   1.355       .  A
N211        H221   1.044       .  S
C212        C213   1.396       .  A
C213        H219   1.083   1_655  S
N214        C215   1.354   1_455  A
N214        H222   1.044       .  S
C215        C216   1.397       .  A
C216        H220   1.083       .  S
C223        C228   1.383       .  A
C223        C224   1.408       .  A
C223        N229   1.339       .  A
C224        C225   1.403       .  A
C224        H235   1.082       .  S
C225        C234   1.389       .  A
C225        C226   1.383       .  A
C226        C227   1.406       .  A
C226        N232   1.338       .  A
C227        C228   1.401       .  A
C227        H236   1.082       .  S
C228        C231   1.387       .  A
N229        C230   1.359       .  A
N229        H239   1.045       .  S
C230        C231   1.395       .  A
C231        H237   1.082       .  S
N232        C233   1.358       .  A
N232        H240   1.045       .  S
C233        C234   1.397       .  A
C234        H238   1.082       .  S
C241        C246   1.385       .  A
C241        C242   1.402       .  A
C241        N247   1.350       .  A
C242        C243   1.405   1_665  A
C242        H253   1.082   1_655  S
C243        C252   1.371       .  A
C243        C244   1.385   1_455  A
C244        C245   1.401       .  A
C244        N250   1.348       .  A
C245        C246   1.404   1_545  A
C245        H254   1.082       .  S
C246        C249   1.369       .  A
N247        C248   1.355       .  A
N247        H257   1.045       .  S
C248        C249   1.396       .  A
C249        H255   1.083       .  S
N250        C251   1.354   1_655  A
N250        H258   1.045       .  S
C251        C252   1.397       .  A
C252        H256   1.083       .  S
C259        C264   1.382       .  A
C259        C260   1.412       .  A
C259        N265   1.344       .  A
C260        C261   1.408   1_556  A
C260        H271   1.082       .  S
C261        C270   1.394       .  A
C261        C262   1.382       .  A
C262        C263   1.412       .  A
C262        N268   1.344       .  A
C263        C264   1.408   1_554  A
C263        H272   1.082       .  S
C264        C267   1.394       .  A
N265        C266   1.360       .  A
N265        H275   1.045       .  S
C266        C267   1.399       .  A
C267        H273   1.082       .  S
N268        C269   1.360       .  A
N268        H276   1.045       .  S
C269        C270   1.399       .  A
C270        H274   1.082       .  S
C277        C282   1.382       .  A
C277        C278   1.410       .  A
C277        N283   1.341       .  A
C278        C279   1.406       .  A
C278        H289   1.082       .  S
C279        C288   1.392       .  A
C279        C280   1.383       .  A
C280        C281   1.409       .  A
C280        N286   1.341       .  A
C281        C282   1.404       .  A
C281        H290   1.082       .  S
C282        C285   1.390       .  A
N283        C284   1.360       .  A
N283        H293   1.044       .  S
C284        C285   1.397       .  A
C285        H291   1.082       .  S
N286        C287   1.359       .  A
N286        H294   1.044       .  S
C287        C288   1.399       .  A
C288        H292   1.082       .  S
C295        C300   1.383       .  A
C295        C296   1.410       .  A
C295        N301   1.342       .  A
C296        C297   1.406       .  A
C296        H307   1.082       .  S
C297        C306   1.392       .  A
C297        C298   1.382       .  A
C298        C299   1.409       .  A
C298        N304   1.341       .  A
C299        C300   1.404       .  A
C299        H308   1.082       .  S
C300        C303   1.390       .  A
N301        C302   1.358       .  A
N301        H311   1.045       .  S
C302        C303   1.397       .  A
C303        H309   1.082       .  S
N304        C305   1.359       .  A
N304        H312   1.045       .  S
C305        C306   1.398       .  A
C306        H310   1.082       .  S
C313        C318   1.383       .  A
C313        C314   1.406       .  A
C313        N319   1.339       .  A
C314        C315   1.402       .  A
C314        H325   1.082       .  S
C315        C324   1.385       .  A
C315        C316   1.383       .  A
C316        C317   1.408       .  A
C316        N322   1.341       .  A
C317        C318   1.404       .  A
C317        H326   1.082       .  S
C318        C321   1.387       .  A
N319        C320   1.357       .  A
N319        H329   1.045       .  S
C320        C321   1.396       .  A
C321        H327   1.082       .  S
N322        C323   1.359       .  A
N322        H330   1.045       .  S
C323        C324   1.395       .  A
C324        H328   1.082       .  S
C331        C336   1.385   1_455  A
C331        C332   1.402   1_445  A
C331        N337   1.351       .  A
C332        C333   1.406       .  A
C332        H343   1.082   1_655  S
C333        C342   1.371       .  A
C333        C334   1.386       .  A
C334        C335   1.398   1_565  A
C334        N340   1.346       .  A
C335        C336   1.401       .  A
C335        H344   1.083       .  S
C336        C339   1.364   1_655  A
N337        C338   1.355       .  A
N337        H347   1.045       .  S
C338        C339   1.395       .  A
C339        H345   1.083       .  S
N340        C341   1.353       .  A
N340        H348   1.045       .  S
C341        C342   1.397       .  A
C342        H346   1.083       .  S
C349        C354   1.383       .  A
C349        C350   1.405       .  A
C349        N355   1.338       .  A
C350        C351   1.401       .  A
C350        H361   1.082       .  S
C351        C360   1.385       .  A
C351        C352   1.383       .  A
C352        C353   1.410       .  A
C352        N358   1.341       .  A
C353        C354   1.405       .  A
C353        H362   1.082       .  S
C354        C357   1.391       .  A
N355        C356   1.357       .  A
N355        H365   1.045       .  S
C356        C357   1.397       .  A
C357        H363   1.082       .  S
N358        C359   1.359       .  A
N358        H366   1.045       .  S
C359        C360   1.395       .  A
C360        H364   1.082       .  S
C367        C372   1.385   1_545  A
C367        C368   1.402   1_455  A
C367        N373   1.351       .  A
C368        C369   1.406       .  A
C368        H379   1.082   1_655  S
C369        C378   1.370       .  A
C369        C370   1.386   1_545  A
C370        C371   1.399       .  A
C370        N376   1.349       .  A
C371        C372   1.403   1_655  A
C371        H380   1.082       .  S
C372        C375   1.366       .  A
N373        C374   1.355       .  A
N373        H383   1.044       .  S
C374        C375   1.396   1_545  A
C375        H381   1.083       .  S
N376        C377   1.354       .  A
N376        H384   1.044       .  S
C377        C378   1.397   1_565  A
C378        H382   1.083       .  S
C385        C390   1.383   1_545  A
C385        C386   1.408       .  A
C385        N391   1.339       .  A
C386        C387   1.403       .  A
C386        H397   1.082       .  S
C387        C396   1.390       .  A
C387        C388   1.383   1_545  A
C388        C389   1.410       .  A
C388        N394   1.340       .  A
C389        C390   1.404       .  A
C389        H398   1.082       .  S
C390        C393   1.391       .  A
N391        C392   1.359   1_545  A
N391        H401   1.044       .  S
C392        C393   1.398       .  A
C393        H399   1.082       .  S
N394        C395   1.360   1_565  A
N394        H402   1.044       .  S
C395        C396   1.396       .  A
C396        H400   1.082       .  S
C403        C408   1.383       .  A
C403        C404   1.412       .  A
C403        N409   1.343       .  A
C404        C405   1.407       .  A
C404        H415   1.082       .  S
C405        C414   1.394       .  A
C405        C406   1.383       .  A
C406        C407   1.408       .  A
C406        N412   1.340       .  A
C407        C408   1.403       .  A
C407        H416   1.082       .  S
C408        C411   1.390       .  A
N409        C410   1.360       .  A
N409        H419   1.045       .  S
C410        C411   1.396       .  A
C411        H417   1.082       .  S
N412        C413   1.357       .  A
N412        H420   1.045       .  S
C413        C414   1.399       .  A
C414        H418   1.082       .  S
C421        C426   1.385       .  A
C421        C422   1.405       .  A
C421        N427   1.350       .  A
C422        C423   1.407       .  A
C422        H433   1.082       .  S
C423        C432   1.375       .  A
C423        C424   1.384       .  A
C424        C425   1.403   1_565  A
C424        N430   1.350   1_565  A
C425        C426   1.406   1_545  A
C425        H434   1.082       .  S
C426        C429   1.374   1_565  A
N427        C428   1.356       .  A
N427        H437   1.047       .  S
C428        C429   1.398   1_565  A
C429        H435   1.083       .  S
N430        C431   1.355   1_545  A
N430        H438   1.046       .  S
C431        C432   1.398       .  A
C432        H436   1.083       .  S
C439        C444   1.383       .  A
C439        C440   1.411       .  A
C439        N445   1.344       .  A
C440        C441   1.407       .  A
C440        H451   1.082   1_545  S
C441        C450   1.393       .  A
C441        C442   1.382       .  A
C442        C443   1.411       .  A
C442        N448   1.344       .  A
C443        C444   1.408       .  A
C443        H452   1.082       .  S
C444        C447   1.393       .  A
N445        C446   1.359       .  A
N445        H455   1.045       .  S
C446        C447   1.399       .  A
C447        H453   1.082       .  S
N448        C449   1.360       .  A
N448        H456   1.045       .  S
C449        C450   1.399       .  A
C450        H454   1.082   1_545  S
C457        C462   1.385       .  A
C457        C458   1.403   1_655  A
C457        N463   1.351       .  A
C458        C459   1.406   1_455  A
C458        H469   1.082       .  S
C459        C468   1.373   1_655  A
C459        C460   1.384       .  A
C460        C461   1.406       .  A
C460        N466   1.353       .  A
C461        C462   1.410       .  A
C461        H470   1.082       .  S
C462        C465   1.377       .  A
N463        C464   1.355       .  A
N463        H473   1.045   1_655  S
C464        C465   1.400       .  A
C465        H471   1.083       .  S
N466        C467   1.357       .  A
N466        H474   1.045       .  S
C467        C468   1.398   1_655  A
C468        H472   1.083       .  S
C475        C480   1.383       .  A
C475        C476   1.408       .  A
C475        N481   1.343       .  A
C476        C477   1.405       .  A
C476        H487   1.082       .  S
C477        C486   1.388       .  A
C477        C478   1.383   1_565  A
C478        C479   1.411       .  A
C478        N484   1.345       .  A
C479        C480   1.408   1_545  A
C479        H488   1.082       .  S
C480        C483   1.391   1_565  A
N481        C482   1.358       .  A
N481        H491   1.045       .  S
C482        C483   1.399   1_565  A
C483        H489   1.082       .  S
N484        C485   1.361   1_545  A
N484        H492   1.044       .  S
C485        C486   1.397       .  A
C486        H490   1.082       .  S
C493        C498   1.385       .  A
C493        C494   1.404       .  A
C493        N499   1.352       .  A
C494        C495   1.408       .  A
C494        H505   1.082       .  S
C495        C504   1.373       .  A
C495        C496   1.385       .  A
C496        C497   1.402   1_565  A
C496        N502   1.350   1_565  A
C497        C498   1.405   1_545  A
C497        H506   1.082       .  S
C498        C501   1.370       .  A
N499        C500   1.356       .  A
N499        H509   1.044       .  S
C500        C501   1.396       .  A
C501        H507   1.083   1_565  S
N502        C503   1.356   1_545  A
N502        H510   1.045       .  S
C503        C504   1.399       .  A
C504        H508   1.083       .  S
C511        C516   1.385       .  A
C511        C512   1.404       .  A
C511        N517   1.351       .  A
C512        C513   1.407       .  A
C512        H523   1.082       .  S
C513        C522   1.372       .  A
C513        C514   1.386       .  A
C514        C515   1.398   1_565  A
C514        N520   1.347   1_565  A
C515        C516   1.402   1_545  A
C515        H524   1.082   1_655  S
C516        C519   1.366   1_655  A
N517        C518   1.356   1_655  A
N517        H527   1.044       .  S
C518        C519   1.395       .  A
C519        H525   1.083   1_565  S
N520        C521   1.353   1_545  A
N520        H528   1.044       .  S
C521        C522   1.398       .  A
C522        H526   1.083       .  S
C529        C534   1.384       .  A
C529        C530   1.405   1_655  A
C529        N535   1.354   1_655  A
C530        C531   1.409   1_455  A
C530        H541   1.082       .  S
C531        C540   1.373       .  A
C531        C532   1.384       .  A
C532        C533   1.405       .  A
C532        N538   1.354       .  A
C533        C534   1.409       .  A
C533        H542   1.082       .  S
C534        C537   1.372       .  A
N535        C536   1.357   1_455  A
N535        H545   1.044       .  S
C536        C537   1.399       .  A
C537        H543   1.083       .  S
N538        C539   1.357       .  A
N538        H546   1.044       .  S
C539        C540   1.400       .  A
C540        H544   1.083   1_655  S
C547        C552   1.385   1_565  A
C547        C548   1.404       .  A
C547        N553   1.353   1_565  A
C548        C549   1.408       .  A
C548        H559   1.082       .  S
C549        C558   1.373       .  A
C549        C550   1.385       .  A
C550        C551   1.403   1_655  A
C550        N556   1.352   1_655  A
C551        C552   1.406   1_465  A
C551        H560   1.082   1_565  S
C552        C555   1.370       .  A
N553        C554   1.356       .  A
N553        H563   1.044   1_545  S
C554        C555   1.398       .  A
C555        H561   1.083   1_655  S
N556        C557   1.355   1_455  A
N556        H564   1.044       .  S
C557        C558   1.399       .  A
C558        H562   1.083       .  S
C565        C570   1.383       .  A
C565        C566   1.407       .  A
C565        N571   1.342       .  A
C566        C567   1.403       .  A
C566        H577   1.082       .  S
C567        C576   1.387       .  A
C567        C568   1.383       .  A
C568        C569   1.409       .  A
C568        N574   1.342       .  A
C569        C570   1.405       .  A
C569        H578   1.082       .  S
C570        C573   1.389       .  A
N571        C572   1.358       .  A
N571        H581   1.045       .  S
C572        C573   1.397       .  A
C573        H579   1.082       .  S
N574        C575   1.359       .  A
N574        H582   1.044       .  S
C575        C576   1.395       .  A
C576        H580   1.082   1_455  S
C583        C588   1.383       .  A
C583        C584   1.408   1_655  A
C583        N589   1.341   1_655  A
C584        C585   1.404   1_455  A
C584        H595   1.082       .  S
C585        C594   1.389       .  A
C585        C586   1.383       .  A
C586        C587   1.407       .  A
C586        N592   1.340       .  A
C587        C588   1.403       .  A
C587        H596   1.082       .  S
C588        C591   1.386       .  A
N589        C590   1.359   1_455  A
N589        H599   1.044       .  S
C590        C591   1.396       .  A
C591        H597   1.082       .  S
N592        C593   1.359       .  A
N592        H600   1.044       .  S
C593        C594   1.397       .  A
C594        H598   1.082   1_655  S
