geometry optimzed in LAMMPS
_audit_creation_date              2020-12-01 
_audit_creation_method            'lammps2cif' 
_symmetry_space_group_name_H-M    'P1' 
_symmetry_Int_Tables_number       1 
_symmetry_cell_setting            triclinic 
loop_ 
_symmetry_equiv_pos_as_xyz 
  x,y,z 
_cell_length_a                    32.31306653 
_cell_length_b                    32.42282641314324 
_cell_length_c                    39.95134010654876 
_cell_angle_alpha                 89.97908475866193 
_cell_angle_beta                  89.9572860125653 
_cell_angle_gamma                 89.90935756432091 
loop_ 
_atom_site_label 
_atom_site_type_symbol 
_atom_site_fract_x 
_atom_site_fract_y 
_atom_site_fract_z 
_atom_site_charge 
O1          O  0.02480189  0.35839369  0.91985590    -0.56900
C2          C  0.02529395  0.25189604  0.84781373     0.75700
O3          O  0.92707971  0.33538800  0.84135560    -0.58000
C4          C  0.00244693  0.39071193  0.92070856     0.75700
C5          C  0.04416340  0.37848724  0.81312961     0.78100
Cd6        Cd  0.99784792  0.33489908  0.86391604     1.37500
O7          O  0.03793692  0.26893396  0.87461325    -0.56900
O8          O  0.06093367  0.36162654  0.83829188    -0.55700
C9          C  0.91176569  0.31379977  0.86479860     0.78100
O10         O  0.00499607  0.37662048  0.81198157    -0.58100
O11         O  0.00046808  0.27300080  0.83038902    -0.56500
O12         O  0.97892464  0.39636884  0.89583072    -0.56500
O13         O  0.93593165  0.30425181  0.88857421    -0.55700
O14         O  0.53497766  0.22162513  0.82542242    -0.56900
C15         C  0.53231329  0.10823337  0.91966626     0.75700
O16         O  0.47896295  0.13394129  0.83928869    -0.58000
C17         C  0.51083656  0.24333721  0.84302041     0.75700
C18         C  0.62546566  0.18995052  0.86611057     0.78100
Cd19       Cd  0.54132791  0.16288786  0.86214400     1.37500
O20         O  0.51456442  0.14323273  0.91861808    -0.56900
O21         O  0.59717452  0.20360629  0.88505453    -0.55700
C22         C  0.49355018  0.12045830  0.81199356     0.78100
O23         O  0.61577000  0.16055728  0.84656987    -0.58100
O24         O  0.55482805  0.09947613  0.89464761    -0.56500
O25         O  0.49951814  0.22777589  0.87083132    -0.56500
O26         O  0.53230741  0.12483508  0.80788670    -0.55700
O27         O  0.50974154  0.86401396  0.10749359    -0.56900
C28         C  0.51984411  0.76387261  0.17748182     0.75700
O29         O  0.48862012  0.88492591  0.21814709    -0.58000
C30         C  0.49739182  0.90110958  0.10933469     0.75700
C31         C  0.40112407  0.81784590  0.16125301     0.78100
Cd32       Cd  0.48540579  0.84438110  0.16492657     1.37500
O33         O  0.53397057  0.78632507  0.15402426    -0.56900
O34         O  0.42848782  0.80639781  0.14057660    -0.55700
C35         C  0.52720967  0.87910811  0.22177226     0.78100
O36         O  0.41182054  0.84480457  0.18257513    -0.58100
O37         O  0.48900683  0.77805573  0.19327566    -0.56500
O38         O  0.47963399  0.91128355  0.13632121    -0.56500
O39         O  0.54555288  0.86006821  0.19848198    -0.55700
O40         O  0.01215702  0.64525113  0.10085464    -0.56900
C41         C  0.00220937  0.74612258  0.17453400     0.75700
O42         O  0.02345315  0.62698885  0.21349076    -0.58000
C43         C  0.02252260  0.60760062  0.10374511     0.75700
C44         C  0.11800188  0.68781870  0.15720783     0.78100
Cd45       Cd  0.03259179  0.66484380  0.15938893     1.37500
O46         O  0.98646582  0.72589554  0.15041974    -0.56900
O47         O  0.09240738  0.69738015  0.13451143    -0.55700
C48         C  0.98434744  0.63126505  0.21334781     0.78100
O49         O  0.10465121  0.66443734  0.18036101    -0.58100
O50         O  0.03314998  0.72988994  0.18870629    -0.56500
O51         O  0.03715914  0.59720717  0.13193051    -0.56500
O52         O  0.96900478  0.64821580  0.18766245    -0.55700
O53         O  0.36903152  0.48959690  0.59658676    -0.56900
C54         C  0.26324317  0.49018955  0.66512195     0.75700
O55         O  0.38840696  0.50781622  0.70499233    -0.58000
C56         C  0.40436074  0.50673066  0.59728392     0.75700
C57         C  0.32544351  0.60254690  0.64531615     0.78100
Cd58       Cd  0.34695147  0.51705267  0.65218886     1.37500
O59         O  0.28100189  0.51858319  0.68136214    -0.56900
O60         O  0.31594017  0.57540301  0.62387038    -0.55700
C61         C  0.38652607  0.46867910  0.70410602     0.78100
O62         O  0.34771252  0.59065469  0.66973933    -0.58100
O63         O  0.28380297  0.47434464  0.64119346    -0.56500
O64         O  0.41220630  0.52839451  0.62283791    -0.56500
O65         O  0.36681497  0.45353832  0.67970735    -0.55700
O66         O  0.15491287  0.99912979  0.60553471    -0.56900
C67         C  0.26412003  0.00205627  0.67437684     0.75700
O68         O  0.14484409  0.98323883  0.71573140    -0.58000
C69         C  0.11941550  0.98256362  0.60842686     0.75700
C70         C  0.20004357  0.88699783  0.65430452     0.78100
Cd71       Cd  0.18104237  0.97311804  0.66067035     1.37500
O72         O  0.24480887  0.01547020  0.64883123    -0.56900
O73         O  0.21024724  0.91326573  0.63228088    -0.55700
C74         C  0.14434606  0.02227406  0.71270945     0.78100
O75         O  0.17947635  0.90055974  0.67910497    -0.58100
O76         O  0.24565723  0.97484979  0.69144400    -0.56500
O77         O  0.11356602  0.96157241  0.63473480    -0.56500
O78         O  0.15855711  0.03656908  0.68561911    -0.55700
O79         O  0.77158243  0.97621692  0.38709207    -0.56900
C80         C  0.89393440  0.00551659  0.43104878     0.75700
O81         O  0.87953750  0.00064777  0.32292732    -0.58000
C82         C  0.75587245  0.98535420  0.35884496     0.75700
C83         C  0.81641245  0.10102016  0.37095807     0.78100
Cd84       Cd  0.83808352  0.01386643  0.37419683     1.37500
O85         O  0.85585116  0.99641323  0.43387335    -0.56900
O86         O  0.80562423  0.07764391  0.39480894    -0.55700
C87         C  0.87886802  0.96158713  0.32532899     0.78100
O88         O  0.84028653  0.08483167  0.34937535    -0.58100
O89         O  0.90508452  0.01872303  0.40260775    -0.56500
O90         O  0.77845251  0.00632587  0.33945213    -0.56500
O91         O  0.86046623  0.94723823  0.35081163    -0.55700
O92         O  0.73771550  0.52676022  0.37568433    -0.56900
C93         C  0.62104768  0.48759267  0.41433263     0.75700
O94         O  0.64299331  0.49232354  0.30495827    -0.58000
C95         C  0.76011112  0.51497415  0.35134462     0.75700
C96         C  0.70314055  0.39447802  0.36269434     0.78100
Cd97       Cd  0.67931116  0.48060262  0.35975259     1.37500
O98         O  0.65878685  0.49732321  0.41795600    -0.56900
O99         O  0.71252708  0.42066361  0.38485346    -0.55700
C100        C  0.64380608  0.53138103  0.30775950     0.78100
O101        O  0.68073219  0.40781517  0.33885720    -0.58100
O102        O  0.61060156  0.47530404  0.38546423    -0.56500
O103        O  0.74519861  0.48736792  0.33258125    -0.56500
O104        O  0.65943887  0.54529290  0.33447300    -0.55700
C105        C  0.75752729  0.19888731  0.39338603    -0.01100
C106        C  0.76546986  0.22515086  0.36587883     0.07500
C107        C  0.79088363  0.21046660  0.33990734    -0.07100
C108        C  0.80793821  0.17053571  0.34077755     0.04900
C109        C  0.80054217  0.14440408  0.36862333    -0.14300
C110        C  0.77514035  0.15936160  0.39459922    -0.07600
C111        C  0.74884433  0.26834395  0.36454390     0.05900
C112        C  0.75728909  0.29521576  0.39119684    -0.08700
C113        C  0.74226552  0.33579128  0.39153904     0.00900
C114        C  0.71841315  0.35091858  0.36431544     0.00700
C115        C  0.71025206  0.32404417  0.33747785    -0.12300
C116        C  0.72516087  0.28328684  0.33734300     0.01200
C117        C  0.75211519  0.36078168  0.42037515     0.40500
C118        C  0.71517402  0.25737278  0.30912865     0.37100
C119        C  0.73046791  0.21127702  0.42038753     0.36900
C120        C  0.83208927  0.15726286  0.31234999     0.37600
N121        N  0.76012466  0.38058905  0.44357573    -0.43200
N122        N  0.70726714  0.23684917  0.28632800    -0.43600
N123        N  0.85120844  0.14680263  0.28935346    -0.41000
N124        N  0.70888226  0.22118355  0.44208271    -0.42400
H125        H  0.76840861  0.13986444  0.41599935     0.13800
H126        H  0.79760302  0.23042782  0.31877404     0.10200
H127        H  0.77603584  0.28441239  0.41196280     0.11300
H128        H  0.69227934  0.33490464  0.31630977     0.17100
C129        C  0.99778685  0.99715918  0.47503799    -0.01100
C130        C  0.98692661  0.99510655  0.50927507     0.07500
C131        C  0.94460170  0.99525025  0.51776797    -0.07100
C132        C  0.91363202  0.99719772  0.49300366     0.04900
C133        C  0.92470725  0.00095793  0.45882218    -0.14300
C134        C  0.96702865  0.00071723  0.45049576    -0.07600
C135        C  0.01951743  0.99278728  0.53606939     0.05900
C136        C  0.05179695  0.02192197  0.53625660    -0.08700
C137        C  0.08495727  0.01898887  0.55887115     0.00900
C138        C  0.08584058  0.98697129  0.58292158     0.00700
C139        C  0.05275590  0.95874010  0.58351558    -0.12300
C140        C  0.02004082  0.96122548  0.56049122     0.01200
C141        C  0.11718752  0.04966690  0.55692218     0.40500
C142        C  0.98801403  0.93028426  0.56212052     0.37100
C143        C  0.04036297  0.99427537  0.46422284     0.36900
C144        C  0.87094761  0.99536015  0.50355888     0.37600
N145        N  0.14298887  0.07429071  0.55515084    -0.43200
N146        N  0.96223910  0.90561698  0.56373158    -0.43600
N147        N  0.83678193  0.99344712  0.51213436    -0.41000
N148        N  0.07454068  0.99196206  0.45574338    -0.42400
H149        H  0.97634092  0.00260316  0.42445194     0.13800
H150        H  0.93562247  0.99389938  0.54390205     0.10200
H151        H  0.05134734  0.04698677  0.51826726     0.11300
H152        H  0.05263587  0.93403853  0.60183550     0.17100
C153        C  0.49497042  0.53184048  0.54065240    -0.01100
C154        C  0.49724490  0.49689115  0.51976806     0.07500
C155        C  0.46853205  0.46485801  0.52426584    -0.07100
C156        C  0.43773770  0.46733401  0.54903203     0.04900
C157        C  0.43536194  0.50247090  0.56993186    -0.14300
C158        C  0.46438926  0.53429498  0.56543158    -0.07600
C159        C  0.52887429  0.49377664  0.49272041     0.05900
C160        C  0.57104431  0.49221513  0.50112413    -0.08700
C161        C  0.60170064  0.49055460  0.47623308     0.00900
C162        C  0.59026502  0.49024756  0.44201644     0.00700
C163        C  0.54794582  0.49163239  0.43380408    -0.12300
C164        C  0.51744590  0.49347688  0.45869141     0.01200
C165        C  0.64440965  0.48806370  0.48666672     0.40500
C166        C  0.47459297  0.49615490  0.44870470     0.37100
C167        C  0.52306671  0.56606516  0.53652563     0.36900
C168        C  0.41022234  0.43269480  0.55329350     0.37600
N169        N  0.67863904  0.48602271  0.49503215    -0.43200
N170        N  0.44020604  0.49829446  0.44081652    -0.43600
N171        N  0.38829444  0.40483076  0.55678682    -0.41000
N172        N  0.54566083  0.59340536  0.53311552    -0.42400
H173        H  0.46297199  0.56152967  0.58115332     0.13800
H174        H  0.47037741  0.43771818  0.50845936     0.10200
H175        H  0.58000031  0.49223647  0.52728988     0.11300
H176        H  0.53853049  0.49169365  0.40775331     0.17100
C177        C  0.25089551  0.68855487  0.62422823    -0.01100
C178        C  0.26779649  0.72238108  0.64159338     0.07500
C179        C  0.30569854  0.71755674  0.65832216    -0.07100
C180        C  0.32627790  0.67944778  0.65879179     0.04900
C181        C  0.30848709  0.64502922  0.64259164    -0.14300
C182        C  0.27133607  0.65049895  0.62475277    -0.07600
C183        C  0.24627433  0.76282581  0.64362478     0.05900
C184        C  0.23232483  0.77659732  0.67493902    -0.08700
C185        C  0.21565970  0.81621318  0.67895584     0.00900
C186        C  0.21278761  0.84306389  0.65108806     0.00700
C187        C  0.22545339  0.82850148  0.61950090    -0.12300
C188        C  0.24210983  0.78888542  0.61558135     0.01200
C189        C  0.20418439  0.82905166  0.71229631     0.40500
C190        C  0.25652927  0.77643449  0.58288910     0.37100
C191        C  0.21187659  0.69151343  0.60679927     0.36900
C192        C  0.36597316  0.67705057  0.67521097     0.37600
N193        N  0.19517427  0.83927470  0.73908508    -0.43200
N194        N  0.26798541  0.76642411  0.55666518    -0.43600
N195        N  0.39796130  0.67565006  0.68817720    -0.41000
N196        N  0.18071470  0.69349435  0.59262669    -0.42400
H197        H  0.25721298  0.62446266  0.61210111     0.13800
H198        H  0.31920302  0.74378518  0.67117166     0.10200
H199        H  0.23554626  0.75657281  0.69658736     0.11300
H200        H  0.22333637  0.84854481  0.59779459     0.17100
C201        C  0.88720570  0.62046320  0.26535003    -0.01100
C202        C  0.89977922  0.59431515  0.29171760     0.07500
C203        C  0.94134956  0.58149131  0.29313601    -0.07100
C204        C  0.96989579  0.59318604  0.26836184     0.04900
C205        C  0.95694384  0.61854957  0.24149694    -0.14300
C206        C  0.91571607  0.63256182  0.24099874    -0.07600
C207        C  0.86881934  0.57419981  0.31398912     0.05900
C208        C  0.86512515  0.53118632  0.31201262    -0.08700
C209        C  0.83152070  0.51081359  0.32643367     0.00900
C210        C  0.80070783  0.53358863  0.34344510     0.00700
C211        C  0.80652559  0.57605605  0.34844212    -0.12300
C212        C  0.84026784  0.59653790  0.33384771     0.01200
C213        C  0.82871930  0.46662848  0.32233023     0.40500
C214        C  0.84372567  0.64058655  0.33835610     0.37100
C215        C  0.84465054  0.63319721  0.26116335     0.36900
C216        C  0.01143552  0.57698598  0.27045987     0.37600
N217        N  0.82637754  0.43125465  0.31898542    -0.43200
N218        N  0.84592219  0.67596002  0.34178324    -0.43600
N219        N  0.04462647  0.56370984  0.27229290    -0.41000
N220        N  0.81067148  0.64371576  0.25773965    -0.42400
H221        H  0.90511570  0.65238923  0.22084836     0.13800
H222        H  0.95110060  0.56081883  0.31299722     0.10200
H223        H  0.88725823  0.51364172  0.29734301     0.11300
H224        H  0.78329710  0.59374574  0.36181938     0.17100
C225        C  0.99316730  0.84121654  0.22836074    -0.01100
C226        C  0.95029882  0.84882723  0.22775241     0.07500
C227        C  0.92534237  0.82676056  0.20530036    -0.07100
C228        C  0.94220835  0.79546067  0.18509402     0.04900
C229        C  0.98466935  0.78526646  0.18789893    -0.14300
C230        C  0.00991620  0.80961126  0.20870386    -0.07600
C231        C  0.93094769  0.87742837  0.25226778     0.05900
C232        C  0.92812707  0.91952858  0.24479533    -0.08700
C233        C  0.91195748  0.94764055  0.26815401     0.00900
C234        C  0.89788208  0.93360057  0.29981521     0.00700
C235        C  0.90099753  0.89116627  0.30708127    -0.12300
C236        C  0.91748588  0.86326678  0.28379181     0.01200
C237        C  0.91009652  0.99053295  0.25866023     0.40500
C238        C  0.92086713  0.82024547  0.29287419     0.37100
C239        C  0.02020291  0.86438199  0.25009710     0.36900
C240        C  0.91486268  0.77293467  0.16319901     0.37600
N241        N  0.90874720  0.02493244  0.25099780    -0.43200
N242        N  0.92371644  0.78578291  0.30009780    -0.43600
N243        N  0.89313807  0.75492240  0.14544069    -0.41000
N244        N  0.04174834  0.88314749  0.26747284    -0.42400
H245        H  0.04271699  0.80278965  0.21077171     0.13800
H246        H  0.89236352  0.83303972  0.20443738     0.10200
H247        H  0.93896631  0.93050210  0.22066935     0.11300
H248        H  0.89071143  0.87959635  0.33117397     0.17100
C249        C  0.56834392  0.94917359  0.28969588    -0.01100
C250        C  0.60324774  0.92663117  0.30073103     0.07500
C251        C  0.60906418  0.88622334  0.28929886    -0.07100
C252        C  0.58320566  0.86952657  0.26481372     0.04900
C253        C  0.55045849  0.89338593  0.25146383    -0.14300
C254        C  0.54212496  0.93234677  0.26525317    -0.07600
C255        C  0.63810296  0.94632601  0.31891308     0.05900
C256        C  0.65144243  0.93031015  0.34978603    -0.08700
C257        C  0.68888566  0.94328799  0.36431486     0.00900
C258        C  0.71375167  0.97277997  0.34762164     0.00700
C259        C  0.69912638  0.98979105  0.31743138    -0.12300
C260        C  0.66225008  0.97662888  0.30290035     0.01200
C261        C  0.70166144  0.92445537  0.39536435     0.40500
C262        C  0.65159033  0.99235697  0.27015256     0.37100
C263        C  0.56025367  0.99036648  0.30179265     0.36900
C264        C  0.59150011  0.82802973  0.25341749     0.37600
N265        N  0.71171674  0.90918530  0.42026065    -0.43200
N266        N  0.64292217  0.00476697  0.24390930    -0.43600
N267        N  0.59817665  0.79478181  0.24434904    -0.41000
N268        N  0.55398633  0.02348459  0.31135091    -0.42400
H269        H  0.51662804  0.95059020  0.25558920     0.13800
H270        H  0.63555952  0.86859099  0.29794360     0.10200
H271        H  0.63327035  0.90643778  0.36192209     0.11300
H272        H  0.71742148  0.01261861  0.30414451     0.17100
C273        C  0.62406738  0.63200571  0.26255970    -0.01100
C274        C  0.59610137  0.62064181  0.23713849     0.07500
C275        C  0.58570898  0.57882498  0.23334726    -0.07100
C276        C  0.60150184  0.54869048  0.25525327     0.04900
C277        C  0.62808399  0.56043303  0.28174481    -0.14300
C278        C  0.63961514  0.60214776  0.28441362    -0.07600
C279        C  0.57490157  0.65277461  0.21669374     0.05900
C280        C  0.59847903  0.67908339  0.19630103    -0.08700
C281        C  0.58094668  0.71453342  0.18193406     0.00900
C282        C  0.53868008  0.72380085  0.18743110     0.00700
C283        C  0.51465405  0.69599563  0.20624397    -0.12300
C284        C  0.53233068  0.66089761  0.22089094     0.01200
C285        C  0.60793849  0.74249551  0.16424320     0.40500
C286        C  0.50683666  0.63523739  0.24206694     0.37100
C287        C  0.63588943  0.67448672  0.26776923     0.36900
C288        C  0.58865209  0.50648772  0.25059289     0.37600
N289        N  0.62961473  0.76510389  0.15029193    -0.43200
N290        N  0.48663684  0.61453529  0.25908951    -0.43600
N291        N  0.57826097  0.47268310  0.24670893    -0.41000
N292        N  0.64545872  0.70849359  0.27185414    -0.42400
H293        H  0.66049910  0.61185819  0.30414597     0.13800
H294        H  0.56431272  0.56989445  0.21372286     0.10200
H295        H  0.63130055  0.67309501  0.19316432     0.11300
H296        H  0.48215848  0.70253676  0.21069865     0.17100
C297        C  0.22036470  0.72725891  0.19030366    -0.01100
C298        C  0.23817239  0.74481034  0.16146503     0.07500
C299        C  0.21736987  0.74217580  0.13086715    -0.07100
C300        C  0.17876412  0.72292524  0.12863029     0.04900
C301        C  0.16053937  0.70513696  0.15751666    -0.14300
C302        C  0.18202852  0.70727243  0.18809741    -0.07600
C303        C  0.27950844  0.76427314  0.16215242     0.05900
C304        C  0.31380725  0.74024773  0.15338399    -0.08700
C305        C  0.35350548  0.75723990  0.15279260     0.00900
C306        C  0.35933404  0.79928713  0.16108033     0.00700
C307        C  0.32486751  0.82326154  0.17018692    -0.12300
C308        C  0.28502067  0.80614458  0.17048040     0.01200
C309        C  0.38782356  0.73024809  0.14503611     0.40500
C310        C  0.25018652  0.83206916  0.17889325     0.37100
C311        C  0.24063766  0.73002680  0.22241559     0.36900
C312        C  0.15886574  0.72200044  0.09628631     0.37600
N313        N  0.41533708  0.70861318  0.13894014    -0.43200
N314        N  0.22221734  0.85286077  0.18552189    -0.43600
N315        N  0.14290652  0.72152710  0.07036485    -0.41000
N316        N  0.25681659  0.73250108  0.24816858    -0.42400
H317        H  0.16831973  0.69443036  0.21058812     0.13800
H318        H  0.23136757  0.75543684  0.10863311     0.10200
H319        H  0.30948593  0.70797091  0.14711136     0.11300
H320        H  0.32899451  0.85549325  0.17662811     0.17100
C321        C  0.36378151  0.00753086  0.72358417    -0.01100
C322        C  0.37640323  0.04859454  0.71844602     0.07500
C323        C  0.35528630  0.07287396  0.69488326    -0.07100
C324        C  0.32005858  0.05767645  0.67827198     0.04900
C325        C  0.30543322  0.01743776  0.68539112    -0.14300
C326        C  0.32867751  0.99241245  0.70723300    -0.07600
C327        C  0.40680964  0.06808334  0.74145257     0.05900
C328        C  0.44737357  0.07644694  0.73085968    -0.08700
C329        C  0.47679556  0.09283994  0.75320130     0.00900
C330        C  0.46543924  0.10129954  0.78682490     0.00700
C331        C  0.42458822  0.09298331  0.79692530    -0.12300
C332        C  0.39554778  0.07672937  0.77478376     0.01200
C333        C  0.51793413  0.10093151  0.74076475     0.40500
C334        C  0.35410690  0.06916721  0.78690122     0.37100
C335        C  0.38519899  0.98118330  0.74707364     0.36900
C336        C  0.29799496  0.08510947  0.65611440     0.37600
N337        N  0.55086160  0.10727963  0.73058410    -0.43200
N338        N  0.32095423  0.06297295  0.79662819    -0.43600
N339        N  0.28042464  0.10725869  0.63837308    -0.41000
N340        N  0.40249818  0.96041646  0.76604388    -0.42400
H341        H  0.31842506  0.96126001  0.71269944     0.13800
H342        H  0.36487677  0.10457327  0.69094813     0.10200
H343        H  0.45615871  0.06972559  0.70519366     0.11300
H344        H  0.41495044  0.09924130  0.82246070     0.17100
C345        C  0.41890361  0.36984352  0.74743524    -0.01100
C346        C  0.44129244  0.38394751  0.77534651     0.07500
C347        C  0.44611615  0.42655000  0.78019383    -0.07100
C348        C  0.42856335  0.45511594  0.75769498     0.04900
C349        C  0.40590162  0.44092036  0.72956939    -0.14300
C350        C  0.40149165  0.39806155  0.72507520    -0.07600
C351        C  0.46126962  0.35382418  0.79831574     0.05900
C352        C  0.50226215  0.34226946  0.79194054    -0.08700
C353        C  0.51961893  0.30752653  0.80739538     0.00900
C354        C  0.49601727  0.28403115  0.83049382     0.00700
C355        C  0.45590617  0.29754799  0.83866588    -0.12300
C356        C  0.43820093  0.33167882  0.82232173     0.01200
C357        C  0.56118383  0.29588776  0.79789670     0.40500
C358        C  0.39538457  0.34172431  0.82869719     0.37100
C359        C  0.41414531  0.32628123  0.74090230     0.36900
C360        C  0.43450766  0.49849291  0.76414728     0.37600
N361        N  0.59432793  0.28639979  0.79000053    -0.43200
N362        N  0.36095658  0.34967744  0.83345793    -0.43600
N363        N  0.43933196  0.53324969  0.76944059    -0.41000
N364        N  0.41052892  0.29133965  0.73581544    -0.42400
H365        H  0.38450183  0.38619432  0.70374335     0.13800
H366        H  0.46372815  0.43746391  0.80153065     0.10200
H367        H  0.51990316  0.35895051  0.77322529     0.11300
H368        H  0.43733267  0.27981378  0.85608300     0.17100
C369        C  0.50315149  0.94528388  0.02129589    -0.01100
C370        C  0.51202899  0.98738540  0.02730398     0.07500
C371        C  0.51496842  0.00094813  0.06060503    -0.07100
C372        C  0.50999931  0.97355927  0.08751205     0.04900
C373        C  0.50305730  0.93112032  0.08147346    -0.14300
C374        C  0.49994772  0.91750425  0.04819654    -0.07600
C375        C  0.51759903  0.01806882  0.99955625     0.05900
C376        C  0.49278582  0.05369349  0.99894257    -0.08700
C377        C  0.49729205  0.08372853  0.97381019     0.00900
C378        C  0.52711500  0.07842417  0.94810549     0.00700
C379        C  0.55236605  0.04295289  0.94915058    -0.12300
C380        C  0.54826074  0.01333163  0.97460723     0.01200
C381        C  0.47051227  0.11934963  0.97509220     0.40500
C382        C  0.57692695  0.97911306  0.97525460     0.37100
C383        C  0.49466588  0.93031154  0.98797811     0.36900
C384        C  0.51284003  0.98978635  0.12109238     0.37600
N385        N  0.44904710  0.14792097  0.97627975    -0.43200
N386        N  0.59979181  0.95160821  0.97581430    -0.43600
N387        N  0.51481208  0.00267608  0.14805501    -0.41000
N388        N  0.48752592  0.91828915  0.96133249    -0.42400
H389        H  0.49335882  0.88526224  0.04320365     0.13800
H390        H  0.52122571  0.03324765  0.06563219     0.10200
H391        H  0.46949199  0.05799623  0.01823872     0.11300
H392        H  0.57592251  0.03839683  0.93011695     0.17100
C393        C  0.16071108  0.48982336  0.71029942    -0.01100
C394        C  0.15069173  0.44759666  0.71025923     0.07500
C395        C  0.17387019  0.42045766  0.69027265    -0.07100
C396        C  0.20902122  0.43414831  0.67286652     0.04900
C397        C  0.22139301  0.47586753  0.67540607    -0.14300
C398        C  0.19572838  0.50359681  0.69291625    -0.07600
C399        C  0.12262606  0.43019532  0.73611080     0.05900
C400        C  0.07951156  0.43251994  0.73246406    -0.08700
C401        C  0.05301748  0.41656690  0.75726067     0.00900
C402        C  0.06984534  0.39810788  0.78647009     0.00700
C403        C  0.11314748  0.39675731  0.79001646    -0.12300
C404        C  0.13934091  0.41243029  0.76529074     0.01200
C405        C  0.00894061  0.41943676  0.75185017     0.40500
C406        C  0.18355166  0.41030943  0.77047512     0.37100
C407        C  0.13767406  0.51884051  0.73045861     0.36900
C408        C  0.23391675  0.40387703  0.65561782     0.37600
N409        N  0.97358867  0.42167308  0.74754515    -0.43200
N410        N  0.21900482  0.40873143  0.77435533    -0.43600
N411        N  0.25382746  0.37941474  0.64194999    -0.36200
N412        N  0.11919499  0.54196567  0.74672260    -0.42400
H413        H  0.20444656  0.53582991  0.69474444     0.13800
H414        H  0.16630281  0.38784537  0.69037849     0.10200
H415        H  0.06660370  0.44665389  0.71018460     0.11300
H416        H  0.12689103  0.38302041  0.81213204     0.17100
C417        C  0.03767303  0.16041514  0.78975719    -0.01100
C418        C  0.06957885  0.13759687  0.80497354     0.07500
C419        C  0.08443991  0.14995790  0.83639330    -0.07100
C420        C  0.06923995  0.18584450  0.85201901     0.04900
C421        C  0.03895164  0.21035093  0.83575287    -0.14300
C422        C  0.02262048  0.19611727  0.80514551    -0.07600
C423        C  0.09199372  0.10560214  0.78552187     0.05900
C424        C  0.12299851  0.11906843  0.76370650    -0.08700
C425        C  0.14109289  0.09221403  0.74062644     0.00900
C426        C  0.12825118  0.05045506  0.73906982     0.00700
C427        C  0.09862210  0.03639947  0.76225925    -0.12300
C428        C  0.08017400  0.06375762  0.78521217     0.01200
C429        C  0.17261380  0.10880449  0.71877533     0.40500
C430        C  0.04830089  0.04871547  0.80735589     0.37100
C431        C  0.02161410  0.14901073  0.75730040     0.36900
C432        C  0.08616933  0.19711800  0.88411776     0.37600
N433        N  0.19773164  0.12215453  0.70119182    -0.43200
N434        N  0.02273940  0.03660665  0.82510709    -0.43600
N435        N  0.09977204  0.20583091  0.90994856    -0.41000
N436        N  0.00895316  0.13985212  0.73125625    -0.42400
H437        H  0.99895324  0.21380980  0.79227501     0.13800
H438        H  0.10916738  0.13244781  0.84808751     0.10200
H439        H  0.13208364  0.15128512  0.76394571     0.11300
H440        H  0.08867843  0.00448101  0.76160261     0.17100
C441        C  0.04457773  0.45800588  0.99081662    -0.01100
C442        C  0.00981724  0.48224184  0.99948601     0.07500
C443        C  0.97235861  0.47557000  0.98267453    -0.07100
C444        C  0.96909534  0.44541919  0.95758601     0.04900
C445        C  0.00392042  0.42105146  0.94877400    -0.14300
C446        C  0.04130412  0.42750499  0.96595002    -0.07600
C447        C  0.01183015  0.51435308  0.02625609     0.05900
C448        C  0.00972207  0.55629898  0.01758698    -0.08700
C449        C  0.01281704  0.58735489  0.04209451     0.00900
C450        C  0.01781846  0.57657976  0.07625787     0.00700
C451        C  0.01910685  0.53442530  0.08472115    -0.12300
C452        C  0.01601627  0.50358382  0.06026627     0.01200
C453        C  0.01232283  0.62978329  0.03115346     0.40500
C454        C  0.01656711  0.46098209  0.07077895     0.37100
C455        C  0.08429311  0.46501142  0.00629899     0.36900
C456        C  0.92926257  0.43943992  0.94195012     0.37600
N457        N  0.01207174  0.66372434  0.02216761    -0.43200
N458        N  0.01697651  0.42686691  0.07929160    -0.43600
N459        N  0.89737359  0.43454292  0.92940172    -0.41000
N460        N  0.11611564  0.47087005  0.01866811    -0.42400
H461        H  0.06841951  0.40954826  0.95923603     0.13800
H462        H  0.94544098  0.49385337  0.98936812     0.10200
H463        H  0.00641146  0.56480105  0.99146051     0.11300
H464        H  0.02239436  0.52532846  0.11070864     0.17100
C465        C  0.80951524  0.27174917  0.89580052    -0.01100
C466        C  0.78856625  0.26338221  0.86569117     0.07500
C467        C  0.80704688  0.27395586  0.83514676    -0.07100
C468        C  0.84649263  0.29187386  0.83419056     0.04900
C469        C  0.86828247  0.29909653  0.86437378    -0.14300
C470        C  0.84913977  0.28913166  0.89494685    -0.07600
C471        C  0.74714262  0.24387054  0.86565330     0.05900
C472        C  0.71225482  0.26883831  0.87020856    -0.08700
C473        C  0.67253220  0.25174505  0.87065309     0.00900
C474        C  0.66723674  0.20872446  0.86624123     0.00700
C475        C  0.70230171  0.18378933  0.86137159    -0.12300
C476        C  0.74213417  0.20098837  0.86142072     0.01200
C477        C  0.63771472  0.27938360  0.87440606     0.40500
C478        C  0.77749397  0.17409829  0.85778387     0.37100
C479        C  0.79103010  0.26224063  0.92778706     0.36900
C480        C  0.86441112  0.30071266  0.80185592     0.37600
N481        N  0.60980978  0.30150449  0.87739347    -0.43200
N482        N  0.80588180  0.15255005  0.85506958    -0.43600
N483        N  0.87874753  0.30778359  0.77592755    -0.41000
N484        N  0.77604198  0.25468086  0.95337419    -0.42400
H485        H  0.86529433  0.29468070  0.91831098     0.13800
H486        H  0.79071171  0.26776454  0.81195973     0.10200
H487        H  0.71613433  0.30184393  0.87334566     0.11300
H488        H  0.69862837  0.15079760  0.85809443     0.17100
loop_ 
_geom_bond_atom_site_label_1 
_geom_bond_atom_site_label_2 
_geom_bond_distance 
_geom_bond_site_symmetry_2 
_ccdc_geom_bond_type 
O1            C4   1.272       .  A
O1           Cd6   2.518   1_455  S
C2           O11   1.263       .  A
C2            O7   1.273       .  A
C2          C421   1.497       .  S
O3            C9   1.270       .  A
O3           Cd6   2.459       .  S
C4           O12   1.265   1_455  A
C4          C445   1.493       .  S
C5           O10   1.268       .  A
C5            O8   1.266       .  A
C5          C402   1.493       .  S
Cd6          O13   2.442       .  S
Cd6          O12   2.443       .  S
Cd6          O11   2.415   1_655  S
Cd6           O7   2.535   1_655  S
Cd6          O10   2.487   1_655  S
Cd6           O8   2.441   1_655  S
C9           O13   1.268       .  A
C9          C469   1.485       .  S
O14          C17   1.263       .  A
O14         Cd19   2.412       .  S
C15          O24   1.268       .  A
C15          O20   1.271       .  A
C15         C378   1.501       .  S
O16          C22   1.265       .  A
O16         Cd19   2.405       .  S
C17          O25   1.274       .  A
C17         C354   1.489       .  S
C18          O23   1.272       .  A
C18          O21   1.266       .  A
C18         C474   1.482       .  S
Cd19         O26   2.512       .  S
Cd19         O25   2.522       .  S
Cd19         O24   2.470       .  S
Cd19         O20   2.498       .  S
Cd19         O23   2.485       .  S
Cd19         O21   2.418       .  S
C22          O26   1.271       .  A
C22         C330   1.492       .  S
O27          C30   1.269       .  A
O27         Cd32   2.507       .  S
C28          O37   1.265       .  A
C28          O33   1.271       .  A
C28         C282   1.488       .  S
O29          C35   1.269       .  A
O29         Cd32   2.503       .  S
C30          O38   1.265       .  A
C30         C373   1.490       .  S
C31          O36   1.269       .  A
C31          O34   1.265       .  A
C31         C306   1.479       .  S
Cd32         O39   2.417       .  S
Cd32         O38   2.458       .  S
Cd32         O37   2.433       .  S
Cd32         O33   2.487       .  S
Cd32         O36   2.480       .  S
Cd32         O34   2.420       .  S
C35          O39   1.264       .  A
C35         C253   1.479       .  S
O40          C43   1.271       .  A
O40         Cd45   2.513       .  S
C41          O50   1.263       .  A
C41          O46   1.273   1_455  A
C41         C229   1.488   1_455  S
O42          C48   1.271   1_455  A
O42         Cd45   2.503       .  S
C43          O51   1.267       .  A
C43         C450   1.497       .  S
C44          O49   1.271       .  A
C44          O47   1.266       .  A
C44         C301   1.486       .  S
Cd45         O52   2.406   1_455  S
Cd45         O51   2.457       .  S
Cd45         O50   2.413       .  S
Cd45         O46   2.502   1_455  S
Cd45         O49   2.475       .  S
Cd45         O47   2.416       .  S
C48          O52   1.265       .  A
C48         C205   1.489       .  S
O53          C56   1.271       .  A
O53         Cd58   2.497       .  S
C54          O63   1.272       .  A
C54          O59   1.265       .  A
C54         C397   1.488       .  S
O55          C61   1.271       .  A
O55         Cd58   2.517       .  S
C56          O64   1.265       .  A
C56         C157   1.488       .  S
C57          O62   1.272       .  A
C57          O60   1.267       .  A
C57         C181   1.486       .  S
Cd58         O65   2.420       .  S
Cd58         O64   2.440       .  S
Cd58         O63   2.507       .  S
Cd58         O59   2.429       .  S
Cd58         O62   2.488       .  S
Cd58         O60   2.420       .  S
C61          O65   1.265       .  A
C61         C349   1.495       .  S
O66          C69   1.272       .  A
O66         Cd71   2.505       .  S
C67          O76   1.265   1_545  A
C67          O72   1.273       .  A
C67         C325   1.493       .  S
O68          C74   1.271   1_565  A
O68         Cd71   2.512       .  S
C69          O77   1.266       .  A
C69         C138   1.496       .  S
C70          O75   1.271       .  A
C70          O73   1.268       .  A
C70         C186   1.488       .  S
Cd71         O78   2.398   1_565  S
Cd71         O77   2.444       .  S
Cd71         O76   2.425       .  S
Cd71         O72   2.522   1_565  S
Cd71         O75   2.465       .  S
Cd71         O73   2.437       .  S
C74          O78   1.264       .  A
C74         C426   1.488       .  S
O79          C82   1.272       .  A
O79         Cd84   2.526   1_565  S
C80          O89   1.266       .  A
C80          O85   1.271   1_545  A
C80         C133   1.498       .  S
O81          C87   1.270   1_545  A
O81         Cd84   2.484       .  S
C82          O90   1.263   1_565  A
C82         C258   1.491       .  S
C83          O88   1.270       .  A
C83          O86   1.266       .  A
C83         C109   1.499       .  S
Cd84         O91   2.461   1_545  S
Cd84         O90   2.389       .  S
Cd84         O89   2.451       .  S
Cd84         O85   2.517   1_545  S
Cd84         O88   2.506       .  S
Cd84         O86   2.459       .  S
C87          O91   1.267       .  A
C87         C234   1.496       .  S
O92          C95   1.270       .  A
O92         Cd97   2.494       .  S
C93         O102   1.267       .  A
C93          O98   1.269       .  A
C93         C162   1.489       .  S
O94         C100   1.272       .  A
O94         Cd97   2.513       .  S
C95         O103   1.264       .  A
C95         C210   1.479       .  S
C96         O101   1.272       .  A
C96          O99   1.264       .  A
C96         C114   1.497       .  S
Cd97        O104   2.414       .  S
Cd97        O103   2.399       .  S
Cd97        O102   2.452       .  S
Cd97         O98   2.478       .  S
Cd97        O101   2.504       .  S
Cd97         O99   2.435       .  S
C100        O104   1.265       .  A
C100        C277   1.491       .  S
C105        C106   1.414       .  A
C105        C110   1.402       .  A
C105        C119   1.445       .  S
C106        C111   1.500       .  S
C106        C107   1.406       .  A
C107        C108   1.407       .  A
C107        H126   1.086       .  S
C108        C109   1.418       .  A
C108        C120   1.443       .  S
C109        C110   1.408       .  A
C110        H125   1.085       .  S
C111        C112   1.403       .  A
C111        C116   1.415       .  A
C112        C113   1.402       .  A
C112        H127   1.085       .  S
C113        C114   1.420       .  A
C113        C117   1.445       .  S
C114        C115   1.407       .  A
C115        C116   1.406       .  A
C115        H128   1.085       .  S
C116        C118   1.443       .  S
C117        N121   1.158       .  T
C118        N122   1.157       .  T
C119        N124   1.157       .  T
C120        N123   1.157       .  T
C129        C130   1.413       .  A
C129        C134   1.401   1_565  A
C129        C143   1.445   1_655  S
C130        C135   1.504   1_655  S
C130        C131   1.409       .  A
C131        C132   1.409       .  A
C131        H150   1.084       .  S
C132        C133   1.417   1_565  A
C132        C144   1.443       .  S
C133        C134   1.407       .  A
C134        H149   1.085       .  S
C135        C136   1.408   1_565  A
C135        C140   1.414       .  A
C136        C137   1.405       .  A
C136        H151   1.085       .  S
C137        C138   1.415   1_545  A
C137        C141   1.443       .  S
C138        C139   1.409       .  A
C139        C140   1.404       .  A
C139        H152   1.085       .  S
C140        C142   1.444   1_455  S
C141        N145   1.157       .  T
C142        N146   1.157       .  T
C143        N148   1.157       .  T
C144        N147   1.157       .  T
C153        C154   1.409       .  A
C153        C158   1.400       .  A
C153        C167   1.444       .  S
C154        C159   1.490       .  S
C154        C155   1.405       .  A
C155        C156   1.405       .  A
C155        H174   1.085       .  S
C156        C157   1.415       .  A
C156        C168   1.443       .  S
C157        C158   1.407       .  A
C158        H173   1.085       .  S
C159        C160   1.404       .  A
C159        C164   1.409       .  A
C160        C161   1.404       .  A
C160        H175   1.085       .  S
C161        C162   1.416       .  A
C161        C165   1.444       .  S
C162        C163   1.407       .  A
C163        C164   1.401       .  A
C163        H176   1.085       .  S
C164        C166   1.444       .  S
C165        N169   1.157       .  T
C166        N170   1.157       .  T
C167        N172   1.157       .  T
C168        N171   1.157       .  T
C177        C178   1.409       .  A
C177        C182   1.399       .  A
C177        C191   1.444       .  S
C178        C183   1.486       .  S
C178        C179   1.404       .  A
C179        C180   1.402       .  A
C179        H198   1.086       .  S
C180        C181   1.413       .  A
C180        C192   1.443       .  S
C181        C182   1.407       .  A
C182        H197   1.085       .  S
C183        C184   1.402       .  A
C183        C188   1.409       .  A
C184        C185   1.401       .  A
C184        H199   1.086       .  S
C185        C186   1.416       .  A
C185        C189   1.444       .  S
C186        C187   1.408       .  A
C187        C188   1.401       .  A
C187        H200   1.086       .  S
C188        C190   1.444       .  S
C189        N193   1.157       .  T
C190        N194   1.157       .  T
C191        N196   1.157       .  T
C192        N195   1.157       .  T
C201        C202   1.412       .  A
C201        C206   1.396       .  A
C201        C215   1.445       .  S
C202        C207   1.489       .  S
C202        C203   1.407       .  A
C203        C204   1.405       .  A
C203        H222   1.085       .  S
C204        C205   1.415       .  A
C204        C216   1.443   1_655  S
C205        C206   1.407       .  A
C206        H221   1.085       .  S
C207        C208   1.402       .  A
C207        C212   1.415       .  A
C208        C209   1.396       .  A
C208        H223   1.085       .  S
C209        C210   1.413       .  A
C209        C213   1.445       .  S
C210        C211   1.404       .  A
C211        C212   1.404       .  A
C211        H224   1.085       .  S
C212        C214   1.444       .  S
C213        N217   1.157       .  T
C214        N218   1.157       .  T
C215        N220   1.157       .  T
C216        N219   1.157       .  T
C225        C226   1.407       .  A
C225        C230   1.399   1_655  A
C225        C239   1.444   1_655  S
C226        C231   1.486       .  S
C226        C227   1.404       .  A
C227        C228   1.406       .  A
C227        H246   1.085       .  S
C228        C229   1.415       .  A
C228        C240   1.443       .  S
C229        C230   1.408   1_655  A
C230        H245   1.086       .  S
C231        C232   1.400       .  A
C231        C236   1.409       .  A
C232        C233   1.405       .  A
C232        H247   1.085       .  S
C233        C234   1.419       .  A
C233        C237   1.443       .  S
C234        C235   1.409       .  A
C235        C236   1.402       .  A
C235        H248   1.085       .  S
C236        C238   1.445       .  S
C237        N241   1.157   1_565  T
C238        N242   1.157       .  T
C239        N244   1.157       .  T
C240        N243   1.157       .  T
C249        C250   1.414       .  A
C249        C254   1.404       .  A
C249        C263   1.444       .  S
C250        C255   1.486       .  S
C250        C251   1.400       .  A
C251        C252   1.397       .  A
C251        H270   1.085       .  S
C252        C253   1.414       .  A
C252        C264   1.445       .  S
C253        C254   1.404       .  A
C254        H269   1.085       .  S
C255        C256   1.406       .  A
C255        C260   1.409       .  A
C256        C257   1.407       .  A
C256        H271   1.086       .  S
C257        C258   1.416       .  A
C257        C261   1.443       .  S
C258        C259   1.408       .  A
C259        C260   1.393       .  A
C259        H272   1.086   1_565  S
C260        C262   1.446       .  S
C261        N265   1.157       .  T
C262        N266   1.157   1_565  T
C263        N268   1.157   1_565  T
C264        N267   1.157       .  T
C273        C274   1.409       .  A
C273        C278   1.397       .  A
C273        C287   1.445       .  S
C274        C279   1.490       .  S
C274        C275   1.406       .  A
C275        C276   1.407       .  A
C275        H294   1.085       .  S
C276        C277   1.416       .  A
C276        C288   1.443       .  S
C277        C278   1.408       .  A
C278        H293   1.085       .  S
C279        C280   1.404       .  A
C279        C284   1.410       .  A
C280        C281   1.403       .  A
C280        H295   1.085       .  S
C281        C282   1.415       .  A
C281        C285   1.443       .  S
C282        C283   1.408       .  A
C283        C284   1.401       .  A
C283        H296   1.085       .  S
C284        C286   1.445       .  S
C285        N289   1.157       .  T
C286        N290   1.157       .  T
C287        N292   1.157       .  T
C288        N291   1.157       .  T
C297        C298   1.408       .  A
C297        C302   1.402       .  A
C297        C311   1.444       .  S
C298        C303   1.478       .  S
C298        C299   1.398       .  A
C299        C300   1.399       .  A
C299        H318   1.085       .  S
C300        C301   1.418       .  A
C300        C312   1.444       .  S
C301        C302   1.408       .  A
C302        H317   1.085       .  S
C303        C304   1.398       .  A
C303        C308   1.409       .  A
C304        C305   1.397       .  A
C304        H319   1.085       .  S
C305        C306   1.416       .  A
C305        C309   1.445       .  S
C306        C307   1.405       .  A
C307        C308   1.403       .  A
C307        H320   1.085       .  S
C308        C310   1.443       .  S
C309        N313   1.157       .  T
C310        N314   1.157       .  T
C311        N316   1.157       .  T
C312        N315   1.157       .  T
C321        C322   1.408       .  A
C321        C326   1.399   1_545  A
C321        C335   1.445   1_545  S
C322        C327   1.488       .  S
C322        C323   1.404       .  A
C323        C324   1.408       .  A
C323        H342   1.085       .  S
C324        C325   1.417       .  A
C324        C336   1.443       .  S
C325        C326   1.408   1_545  A
C326        H341   1.086       .  S
C327        C328   1.404       .  A
C327        C332   1.408       .  A
C328        C329   1.409       .  A
C328        H343   1.086       .  S
C329        C330   1.419       .  A
C329        C333   1.443       .  S
C330        C331   1.407       .  A
C331        C332   1.394       .  A
C331        H344   1.086       .  S
C332        C334   1.445       .  S
C333        N337   1.158       .  T
C334        N338   1.157       .  T
C335        N340   1.157       .  T
C336        N339   1.157       .  T
C345        C346   1.407       .  A
C345        C350   1.396       .  A
C345        C359   1.445       .  S
C346        C351   1.487       .  S
C346        C347   1.404       .  A
C347        C348   1.409       .  A
C347        H366   1.085       .  S
C348        C349   1.419       .  A
C348        C360   1.443       .  S
C349        C350   1.409       .  A
C350        H365   1.085       .  S
C351        C352   1.399       .  A
C351        C356   1.411       .  A
C352        C353   1.401       .  A
C352        H367   1.085       .  S
C353        C354   1.419       .  A
C353        C357   1.445       .  S
C354        C355   1.406       .  A
C355        C356   1.406       .  A
C355        H368   1.084       .  S
C356        C358   1.443       .  S
C357        N361   1.157       .  T
C358        N362   1.157       .  T
C359        N364   1.157       .  T
C360        N363   1.157       .  T
C369        C370   1.416       .  A
C369        C374   1.406       .  A
C369        C383   1.444   1_554  S
C370        C375   1.500   1_564  S
C370        C371   1.405   1_565  A
C371        C372   1.403   1_545  A
C371        H390   1.086       .  S
C372        C373   1.415       .  A
C372        C384   1.444       .  S
C373        C374   1.405       .  A
C374        H389   1.086       .  S
C375        C376   1.405       .  A
C375        C380   1.413       .  A
C376        C377   1.406       .  A
C376        H391   1.086   1_556  S
C377        C378   1.418       .  A
C377        C381   1.443       .  S
C378        C379   1.410       .  A
C379        C380   1.405       .  A
C379        H392   1.086       .  S
C380        C382   1.444   1_545  S
C381        N385   1.157       .  T
C382        N386   1.157       .  T
C383        N388   1.157       .  T
C384        N387   1.157   1_565  T
C393        C394   1.407       .  A
C393        C398   1.401       .  A
C393        C407   1.444       .  S
C394        C399   1.486       .  S
C394        C395   1.404       .  A
C395        C396   1.404       .  A
C395        H414   1.086       .  S
C396        C397   1.415       .  A
C396        C408   1.443       .  S
C397        C398   1.408       .  A
C398        H413   1.085       .  S
C399        C400   1.403       .  A
C399        C404   1.408       .  A
C400        C401   1.408       .  A
C400        H415   1.084       .  S
C401        C402   1.420       .  A
C401        C405   1.444       .  S
C402        C403   1.407       .  A
C403        C404   1.396       .  A
C403        H416   1.084       .  S
C404        C406   1.445       .  S
C405        N409   1.157   1_455  T
C406        N410   1.157       .  T
C407        N412   1.157       .  T
C408        N411   1.157       .  T
C417        C418   1.406       .  A
C417        C422   1.397       .  A
C417        C431   1.445       .  S
C418        C423   1.484       .  S
C418        C419   1.403       .  A
C419        C420   1.408       .  A
C419        H438   1.085       .  S
C420        C421   1.418       .  A
C420        C432   1.442       .  S
C421        C422   1.410       .  A
C422        H437   1.085   1_455  S
C423        C424   1.398       .  A
C423        C428   1.410       .  A
C424        C425   1.396       .  A
C424        H439   1.086       .  S
C425        C426   1.418       .  A
C425        C429   1.445       .  S
C426        C427   1.408       .  A
C427        C428   1.408       .  A
C427        H440   1.084       .  S
C428        C430   1.443       .  S
C429        N433   1.157       .  T
C430        N434   1.157       .  T
C431        N436   1.157       .  T
C432        N435   1.157       .  T
C441        C442   1.413       .  A
C441        C446   1.406       .  A
C441        C455   1.443   1_556  S
C442        C447   1.494   1_556  S
C442        C443   1.402   1_455  A
C443        C444   1.404       .  A
C443        H462   1.085       .  S
C444        C445   1.418   1_655  A
C444        C456   1.444       .  S
C445        C446   1.406       .  A
C446        H461   1.085       .  S
C447        C448   1.405       .  A
C447        C452   1.409       .  A
C448        C449   1.408       .  A
C448        H463   1.085   1_554  S
C449        C450   1.418       .  A
C449        C453   1.443       .  S
C450        C451   1.408       .  A
C451        C452   1.402       .  A
C451        H464   1.084       .  S
C452        C454   1.444       .  S
C453        N457   1.157       .  T
C454        N458   1.157       .  T
C455        N460   1.157       .  T
C456        N459   1.157       .  T
C465        C466   1.407       .  A
C465        C470   1.400       .  A
C465        C479   1.444       .  S
C466        C471   1.481       .  S
C466        C467   1.401       .  A
C467        C468   1.402       .  A
C467        H486   1.085       .  S
C468        C469   1.417       .  A
C468        C480   1.444       .  S
C469        C470   1.406       .  A
C470        H485   1.085       .  S
C471        C472   1.399       .  A
C471        C476   1.410       .  A
C472        C473   1.399       .  A
C472        H487   1.085       .  S
C473        C474   1.417       .  A
C473        C477   1.445       .  S
C474        C475   1.404       .  A
C475        C476   1.404       .  A
C475        H488   1.084       .  S
C476        C478   1.443       .  S
C477        N481   1.157       .  T
C478        N482   1.157       .  T
C479        N484   1.157       .  T
C480        N483   1.157       .  T
