geometry optimzed in LAMMPS
_audit_creation_date              2020-12-01 
_audit_creation_method            'lammps2cif' 
_symmetry_space_group_name_H-M    'P1' 
_symmetry_Int_Tables_number       1 
_symmetry_cell_setting            triclinic 
loop_ 
_symmetry_equiv_pos_as_xyz 
  x,y,z 
_cell_length_a                    31.56611212 
_cell_length_b                    31.482414674866238 
_cell_length_c                    44.66651839326847 
_cell_angle_alpha                 89.95431227470621 
_cell_angle_beta                  89.99560028523982 
_cell_angle_gamma                 90.22584926660659 
loop_ 
_atom_site_label 
_atom_site_type_symbol 
_atom_site_fract_x 
_atom_site_fract_y 
_atom_site_fract_z 
_atom_site_charge 
O1          O  0.05474455  0.73247867  0.59084175    -0.57100
C2          C  0.96427958  0.77567266  0.68096970     0.75600
O3          O  0.94340656  0.73988272  0.58391121    -0.58200
C4          C  0.07671101  0.76398377  0.59910200     0.75500
C5          C  0.00142115  0.65415772  0.63391426     0.77900
Cd6        Cd  0.99606489  0.74373626  0.62502126     1.37500
O7          O  0.00275325  0.78097993  0.67375443    -0.57100
O8          O  0.97220901  0.67071122  0.61852639    -0.55900
C9          C  0.94059196  0.77967752  0.58058593     0.77900
O10         O  0.02690231  0.67952539  0.64664890    -0.58200
O11         O  0.94211819  0.75440335  0.66284014    -0.56700
O12         O  0.06194095  0.78591284  0.62040183    -0.56700
O13         O  0.96382191  0.80215501  0.59735977    -0.55900
O14         O  0.85561562  0.05438056  0.89988387    -0.57100
C15         C  0.83443818  0.94550688  0.84733734     0.75600
O16         O  0.79506260  0.95030615  0.94394567    -0.58200
C17         C  0.83251689  0.07580262  0.91744109     0.75500
C18         C  0.71751211  0.00663616  0.88933217     0.77900
Cd19       Cd  0.80573301  0.99290922  0.89814920     1.37500
O20         O  0.84732275  0.98319301  0.85166091    -0.57100
O21         O  0.74477637  0.02703133  0.87418797    -0.55900
C22         C  0.83368776  0.94095044  0.94716064     0.77900
O23         O  0.73164193  0.97804935  0.90656865    -0.58200
O24         O  0.80585375  0.93221384  0.86476208    -0.56700
O25         O  0.79761980  0.05924609  0.92486412    -0.56700
O26         O  0.85905304  0.95679266  0.92832560    -0.55900
O27         O  0.98744031  0.24192402  0.16589697    -0.57100
C28         C  0.06540980  0.27435440  0.09995851     0.75600
O29         O  0.93731175  0.30315933  0.08024184    -0.58200
C30         C  0.95089023  0.24776517  0.17661240     0.75500
C31         C  0.99117837  0.38272339  0.13925065     0.77900
Cd32       Cd  0.98319694  0.29392347  0.12499862     1.37500
O33         O  0.05476567  0.26150383  0.12574193    -0.57100
O34         O  0.01382887  0.35494548  0.15187676    -0.55900
C35         C  0.93085269  0.26383574  0.07653651     0.77900
O36         O  0.96278263  0.36921713  0.12165015    -0.58200
O37         O  0.03847407  0.29668073  0.08632790    -0.56700
O38         O  0.92930574  0.27669404  0.16411300    -0.56700
O39         O  0.94696309  0.23929470  0.09577773    -0.55900
O40         O  0.83098226  0.04755581  0.35734593    -0.57100
C41         C  0.80736345  0.96479098  0.43040372     0.75600
O42         O  0.78955781  0.09781292  0.44857972    -0.58200
C43         C  0.82874873  0.08742754  0.35354626     0.75500
C44         C  0.70205490  0.04305296  0.39106256     0.77900
Cd45       Cd  0.79072080  0.04781320  0.40530460     1.37500
O46         O  0.82787808  0.97838141  0.40795594    -0.57100
O47         O  0.72978844  0.02260707  0.37660327    -0.55900
C48         C  0.82942777  0.09774495  0.45192560     0.77900
O49         O  0.71586287  0.06772229  0.41122045    -0.58200
O50         O  0.77829666  0.98880879  0.43985552    -0.56700
O51         O  0.80759597  0.10776848  0.37278111    -0.56700
O52         O  0.85009820  0.07488710  0.43386604    -0.55900
O53         O  0.03695382  0.22043280  0.62348874    -0.57100
C54         C  0.14037707  0.23875908  0.68279215     0.75600
O55         O  0.16203969  0.26262374  0.58802084    -0.58200
C56         C  0.02812442  0.23207510  0.59703455     0.75500
C57         C  0.08514832  0.34823014  0.63289256     0.77900
Cd58       Cd  0.10475663  0.26057000  0.62576193     1.37500
O59         O  0.10500378  0.22339953  0.67466476    -0.57100
O60         O  0.06505379  0.31916215  0.64641785    -0.55900
C61         C  0.16672796  0.22270001  0.58724727     0.77900
O62         O  0.11573080  0.33680746  0.61642281    -0.58200
O63         O  0.15799005  0.26435412  0.66481452    -0.56700
O64         O  0.05443560  0.25680607  0.58457920    -0.56700
O65         O  0.14271525  0.20123815  0.60424717    -0.55900
O66         O  0.28162432  0.02068527  0.92066550    -0.57100
C67         C  0.28692107  0.12757779  0.86628049     0.75600
O68         O  0.31692048  0.14305468  0.96184896    -0.58200
C69         C  0.29522935  0.00953486  0.94618422     0.75500
C70         C  0.40790746  0.07639643  0.90878405     0.77900
Cd71       Cd  0.31931598  0.08975813  0.92032616     1.37500
O72         O  0.28319029  0.08816959  0.87143922    -0.57100
O73         O  0.37888901  0.05583600  0.89574228    -0.55900
C74         C  0.27708204  0.13997931  0.96518179     0.77900
O75         O  0.39596629  0.10526657  0.92667502    -0.58200
O76         O  0.30613194  0.14937931  0.88585233    -0.56700
O77         O  0.32124459  0.03457446  0.95864537    -0.56700
O78         O  0.25833179  0.11465768  0.94759636    -0.55900
O79         O  0.26395593  0.95412536  0.37548369    -0.57100
C80         C  0.30015533  0.02022017  0.44913647     0.75600
O81         O  0.25818107  0.90757249  0.44409491    -0.58200
C82         C  0.27237500  0.91997470  0.36187181     0.75500
C83         C  0.39880970  0.95784955  0.39685800     0.77900
Cd84       Cd  0.31380217  0.94289617  0.41656087     1.37500
O85         O  0.27868547  0.01108331  0.42604037    -0.57100
O86         O  0.36782133  0.97992950  0.38828539    -0.55900
C87         C  0.28077242  0.88011149  0.45708845     0.77900
O88         O  0.39014545  0.92718394  0.41431116    -0.58200
O89         O  0.32743916  0.99316590  0.45701072    -0.56700
O90         O  0.30030354  0.89660404  0.37372769    -0.56700
O91         O  0.32011841  0.88122687  0.45147353    -0.55900
O92         O  0.08141325  0.81239404  0.17602958    -0.57100
C93         C  0.00147222  0.80547454  0.10240251     0.75600
O94         O  0.13849022  0.77549704  0.08661815    -0.58200
C95         C  0.12121819  0.81672235  0.17772924     0.75500
C96         C  0.07293080  0.69081925  0.13738771     0.77900
Cd97       Cd  0.08238944  0.78025725  0.12544804     1.37500
O98         O  0.01869193  0.82523647  0.12389237    -0.57100
O99         O  0.05329017  0.71870269  0.15223546    -0.55900
C100        C  0.13335368  0.81306662  0.07713207     0.77900
O101        O  0.09816815  0.70466231  0.11763652    -0.58200
O102        O  0.02077075  0.77295315  0.09303949    -0.56700
O103        O  0.14248103  0.80364247  0.15566791    -0.56700
O104        O  0.10466161  0.83443268  0.08985486    -0.55900
C105        C  0.25037287  0.90709985  0.33403296    -0.11200
C106        C  0.22522520  0.93541185  0.31701238     0.04300
C107        C  0.20374218  0.92059169  0.29170740    -0.11800
C108        C  0.20700177  0.87815366  0.28278848     0.19100
C109        C  0.23304658  0.85027543  0.29894123    -0.08800
C110        C  0.25426345  0.86475270  0.32438625    -0.01800
H111        H  0.18435342  0.94231193  0.27884028     0.05600
C112        C  0.18374497  0.86377061  0.25611264     0.21100
H113        H  0.27368857  0.84254050  0.33677414     0.10800
C114        C  0.19945943  0.87435005  0.22776928    -0.15100
C115        C  0.17899183  0.86017361  0.20190235     0.03800
C116        C  0.14199388  0.83502581  0.20431056    -0.10500
C117        C  0.12545456  0.82586086  0.23278602    -0.00500
C118        C  0.14618723  0.83986402  0.25862941    -0.05600
H119        H  0.22794936  0.89345799  0.22580322     0.06800
H120        H  0.09697533  0.80680464  0.23497348     0.10200
Br121      Br  0.24116311  0.79245972  0.28668507    -0.05300
Br122      Br  0.21971147  0.99484456  0.32588805    -0.02300
Br123      Br  0.20200613  0.87796837  0.16408517     0.00600
Br124      Br  0.12240077  0.82552092  0.29688176    -0.03800
C125        C  0.15914243  0.83213634  0.05279375    -0.11200
C126        C  0.20053981  0.81833039  0.04556577     0.04300
C127        C  0.22531654  0.84201927  0.02545956    -0.11800
C128        C  0.20912760  0.87861316  0.01181152     0.19100
C129        C  0.16693564  0.89038209  0.01714295    -0.08800
C130        C  0.14252664  0.86752609  0.03764857    -0.01800
H131        H  0.25777517  0.83273643  0.02124224     0.05600
C132        C  0.23746946  0.90728037  0.99495400     0.21100
H133        H  0.11058164  0.87814985  0.04223053     0.10800
C134        C  0.23920201  0.90506352  0.96364285    -0.15100
C135        C  0.26024236  0.93657496  0.94706855     0.03800
C136        C  0.27938705  0.97126881  0.96200887    -0.10500
C137        C  0.28000282  0.97149517  0.99347965    -0.00500
C138        C  0.25921333  0.94000911  0.00991288    -0.05600
H139        H  0.22300001  0.87950930  0.95205720     0.06800
H140        H  0.29478291  0.99752598  0.00548207     0.10200
Br141      Br  0.14199941  0.93878976  0.99794099    -0.05300
Br142      Br  0.22632644  0.76937012  0.06345220    -0.02300
Br143      Br  0.26224770  0.93001482  0.90438636     0.00600
Br144      Br  0.25869231  0.94465011  0.05277217    -0.03800
C145        C  0.19777555  0.20118298  0.56755063    -0.11200
C146        C  0.21785723  0.22125049  0.54291411     0.04300
C147        C  0.24206416  0.19703473  0.52296125    -0.11800
C148        C  0.24722246  0.15327580  0.52735461     0.19100
C149        C  0.23024540  0.13407803  0.55317385    -0.08800
C150        C  0.20565615  0.15789948  0.57279100    -0.01800
H151        H  0.25570466  0.21207475  0.50334599     0.05600
C152        C  0.26635168  0.12677506  0.50376053     0.21100
H153        H  0.19164828  0.14195182  0.59191076     0.10800
C154        C  0.30409886  0.10514704  0.50971395    -0.15100
C155        C  0.31736307  0.07177896  0.49136610     0.03800
C156        C  0.29231071  0.05957641  0.46645890    -0.10500
C157        C  0.25685909  0.08433915  0.45899360    -0.00500
C158        C  0.24385688  0.11771931  0.47732668    -0.05600
H159        H  0.32200086  0.11267246  0.52972796     0.06800
H160        H  0.23778013  0.07649332  0.43960380     0.10200
Br161      Br  0.23721103  0.07468869  0.56178977    -0.05300
Br162      Br  0.21234344  0.28066454  0.53410363    -0.02300
Br163      Br  0.36910661  0.04405415  0.50262135     0.00600
Br164      Br  0.19307631  0.14745167  0.46658548    -0.03800
C165        C  0.26863929  0.14742879  0.83931740    -0.11200
C166        C  0.27176623  0.12825906  0.81091274     0.04300
C167        C  0.25167135  0.14674341  0.78628292    -0.11800
C168        C  0.22843524  0.18437476  0.78935151     0.19100
C169        C  0.22607346  0.20412941  0.81758188    -0.08800
C170        C  0.24640513  0.18577003  0.84223068    -0.01800
H171        H  0.25389470  0.13148784  0.76459665     0.05600
C172        C  0.20590703  0.20140953  0.76294266     0.21100
H173        H  0.24393228  0.20094820  0.86392751     0.10800
C174        C  0.16145722  0.20054999  0.76233507    -0.15100
C175        C  0.13913395  0.21314494  0.73674619     0.03800
C176        C  0.16154058  0.22670743  0.71107305    -0.10500
C177        C  0.20602162  0.22851594  0.71211335    -0.00500
C178        C  0.22819552  0.21594381  0.73763462    -0.05600
H179        H  0.14406667  0.18948018  0.78177101     0.06800
H180        H  0.22384520  0.23904424  0.69272391     0.10200
Br181      Br  0.19582797  0.25622363  0.82346923    -0.05300
Br182      Br  0.30471980  0.07808915  0.80416599    -0.02300
Br183      Br  0.07839778  0.21264131  0.73884066     0.00600
Br184      Br  0.28889750  0.21960922  0.73686649    -0.03800
C185        C  0.44294203  0.96824365  0.38805947    -0.11200
C186        C  0.45324675  0.00275485  0.36885916     0.04300
C187        C  0.49563186  0.01434267  0.36463217    -0.11800
C188        C  0.52809604  0.99220877  0.37898091     0.19100
C189        C  0.51827169  0.95669521  0.39675733    -0.08800
C190        C  0.47606251  0.94486461  0.40105683    -0.01800
H191        H  0.50326780  0.04178813  0.35096735     0.05600
C192        C  0.57132449  0.00973533  0.37864687     0.21100
H193        H  0.46919785  0.91823766  0.41567169     0.10800
C194        C  0.58220851  0.03973191  0.40043130    -0.15100
C195        C  0.62412300  0.05313842  0.40404468     0.03800
C196        C  0.65619294  0.03620045  0.38537971    -0.10500
C197        C  0.64431315  0.00819776  0.36220279    -0.00500
C198        C  0.60232786  0.99482161  0.35883106    -0.05600
H199        H  0.55809197  0.05149040  0.41555193     0.06800
H200        H  0.66800276  0.99516486  0.34730416     0.10200
Br201      Br  0.56143498  0.92523428  0.41722620    -0.05300
Br202      Br  0.41199460  0.03699946  0.34845587    -0.02300
Br203      Br  0.63447299  0.09260137  0.43603119     0.00600
Br204      Br  0.58905533  0.95463100  0.32794981    -0.03800
C205        C  0.85186046  0.12297833  0.47509184    -0.11200
C206        C  0.83240706  0.13776831  0.50166088     0.04300
C207        C  0.85668067  0.15951064  0.52312335    -0.11800
C208        C  0.90002295  0.16694636  0.51851718     0.19100
C209        C  0.91927344  0.15242705  0.49208422    -0.08800
C210        C  0.89526360  0.13097977  0.47070634    -0.01800
H211        H  0.84188423  0.17008203  0.54367900     0.05600
C212        C  0.92593457  0.18729669  0.54201685     0.21100
H213        H  0.91099174  0.11998767  0.45061306     0.10800
C214        C  0.93881223  0.16297988  0.56665427    -0.15100
C215        C  0.97051667  0.17769361  0.58601991     0.03800
C216        C  0.98983270  0.21759420  0.58072491    -0.10500
C217        C  0.97454980  0.24303080  0.55719113    -0.00500
C218        C  0.94282521  0.22827127  0.53798815    -0.05600
H219        H  0.92596042  0.13131614  0.56976531     0.06800
H220        H  0.98835668  0.27403965  0.55303059     0.10200
Br221      Br  0.97890983  0.15910110  0.48478372    -0.05300
Br222      Br  0.77395343  0.12726742  0.51105607    -0.02300
Br223      Br  0.98880107  0.13962712  0.61697750     0.00600
Br224      Br  0.92521703  0.26402680  0.50549231    -0.03800
C225        C  0.99955560  0.42853671  0.14296194    -0.11200
C226        C  0.01318527  0.44612775  0.17036711     0.04300
C227        C  0.02583092  0.48879672  0.17163164    -0.11800
C228        C  0.02505913  0.51433668  0.14587706     0.19100
C229        C  0.01026204  0.49705331  0.11873260    -0.08800
C230        C  0.99742980  0.45461169  0.11751915    -0.01800
H231        H  0.03671219  0.50199575  0.19267685     0.05600
C232        C  0.04034191  0.55872492  0.14721488     0.21100
H233        H  0.98718021  0.44152730  0.09627435     0.10800
C234        C  0.07656535  0.57014748  0.13089861    -0.15100
C235        C  0.08885279  0.61266943  0.12800452     0.03800
C236        C  0.06491765  0.64482123  0.14221922    -0.10500
C237        C  0.03017075  0.63275271  0.16014558    -0.00500
C238        C  0.01767591  0.59025126  0.16257706    -0.05600
H239        H  0.09446160  0.54584501  0.11934885     0.06800
H240        H  0.01135032  0.65661921  0.17137726     0.10200
Br241      Br  0.00711501  0.53011808  0.08263631    -0.05300
Br242      Br  0.01356902  0.41382811  0.20681008    -0.02300
Br243      Br  0.13779389  0.62373214  0.10358463     0.00600
Br244      Br  0.96758866  0.57731290  0.18522697    -0.03800
C245        C  0.10578604  0.26159534  0.08575454    -0.11200
C246        C  0.12455410  0.28516670  0.06220765     0.04300
C247        C  0.15823286  0.26782088  0.04596177    -0.11800
C248        C  0.17338450  0.22711793  0.05253658     0.19100
C249        C  0.15663479  0.20481313  0.07716433    -0.08800
C250        C  0.12351765  0.22234253  0.09378773    -0.01800
H251        H  0.17103394  0.28512953  0.02699908     0.05600
C252        C  0.20078949  0.20559693  0.03053882     0.21100
H253        H  0.10968953  0.20377528  0.11176773     0.10800
C254        C  0.24486493  0.21125196  0.03102803    -0.15100
C255        C  0.27086987  0.19065527  0.01004996     0.03800
C256        C  0.25244373  0.16387324  0.98805014    -0.08900
C257        C  0.20808572  0.15892728  0.98782036    -0.00500
C258        C  0.18247525  0.17948600  0.00859398    -0.05600
H259        H  0.25905014  0.23158984  0.04785394     0.06800
H260        H  0.19283044  0.13891375  0.97128065     0.10200
Br261      Br  0.17518042  0.14854729  0.08697015    -0.05300
Br262      Br  0.10527364  0.34056332  0.05054244    -0.02300
Br263      Br  0.33075959  0.20047485  0.01319054     0.00600
Br264      Br  0.12224369  0.17131619  0.00591494    -0.03800
C265        C  0.84930873  0.10927923  0.32793078    -0.11200
C266        C  0.86365382  0.15176450  0.33005018     0.04300
C267        C  0.88020017  0.17229755  0.30483753    -0.11800
C268        C  0.88305407  0.15147179  0.27717565     0.19100
C269        C  0.87100377  0.10828727  0.27542165    -0.08800
C270        C  0.85423472  0.08767060  0.30065231    -0.01800
H271        H  0.89103262  0.20487109  0.30683109     0.05600
C272        C  0.89944728  0.17543143  0.25085341     0.21100
H273        H  0.84406989  0.05488521  0.29871446     0.10800
C274        C  0.93695851  0.16230038  0.23694020    -0.15100
C275        C  0.95421506  0.18487991  0.21277030     0.03800
C276        C  0.93411550  0.22225224  0.20220191    -0.10500
C277        C  0.89646200  0.23525908  0.21627166    -0.00500
C278        C  0.87918537  0.21239810  0.24030039    -0.05600
H279        H  0.95312659  0.13426347  0.24507089     0.06800
H280        H  0.88024528  0.26352290  0.20862120     0.10200
Br281      Br  0.87525272  0.07629582  0.23899659    -0.05300
Br282      Br  0.86412002  0.18295015  0.36701968    -0.02300
Br283      Br  0.00458344  0.16150628  0.19523606     0.00600
Br284      Br  0.82722868  0.23261129  0.25742508    -0.03800
C285        C  0.67171490  0.01666655  0.88875735    -0.11200
C286        C  0.65351437  0.04631698  0.86871454     0.04300
C287        C  0.61069270  0.05704715  0.87158364    -0.11800
C288        C  0.58553098  0.03881565  0.89405788     0.19100
C289        C  0.60331920  0.00883124  0.91362884    -0.08800
C290        C  0.64585068  0.99797142  0.91082123    -0.01800
H291        H  0.59685375  0.07965578  0.85615654     0.05600
C292        C  0.54032958  0.04998103  0.89623264     0.21100
H293        H  0.65890088  0.97542780  0.92662666     0.10800
C294        C  0.51005194  0.01904360  0.88915293    -0.15100
C295        C  0.46690704  0.02684708  0.89295007     0.03800
C296        C  0.45324604  0.06692633  0.90357182    -0.10500
C297        C  0.48382968  0.09815475  0.91016508    -0.00500
C298        C  0.52708038  0.08995576  0.90659784    -0.05600
H299        H  0.52022542  0.98809193  0.88140707     0.06800
H300        H  0.47413280  0.12897527  0.91840795     0.10200
Br301      Br  0.57131548  0.98304540  0.94542542    -0.05300
Br302      Br  0.68435763  0.07300307  0.83670194    -0.02300
Br303      Br  0.42942738  0.97980012  0.88537308     0.00600
Br304      Br  0.56693585  0.13341510  0.91755218    -0.03800
C305        C  0.84839505  0.91363060  0.97186700    -0.11200
C306        C  0.88546013  0.88891176  0.96938137     0.04300
C307        C  0.89981229  0.86593750  0.99402802    -0.11800
C308        C  0.87811360  0.86709018  0.02137461     0.19100
C309        C  0.84036514  0.89037607  0.02367974    -0.08800
C310        C  0.82550037  0.91305666  0.99888698    -0.01800
H311        H  0.92910621  0.84830389  0.99219907     0.05600
C312        C  0.89942655  0.84885684  0.04772923     0.21100
H313        H  0.79682143  0.93154630  0.00110649     0.10800
C314        C  0.91803934  0.87691844  0.06822082    -0.15100
C315        C  0.94930740  0.86308584  0.08805041     0.03800
C316        C  0.96223365  0.82010720  0.08755134    -0.10500
C317        C  0.94037944  0.79134817  0.06896187    -0.00500
C318        C  0.90930333  0.80543113  0.04908729    -0.05600
H319        H  0.91078248  0.91048595  0.06705790     0.06800
H320        H  0.94911423  0.75811856  0.06862421     0.10200
Br321      Br  0.80881278  0.89277232  0.06032312    -0.05300
Br322      Br  0.91809608  0.88454685  0.93318684    -0.02300
Br323      Br  0.97618084  0.90608386  0.11199396     0.00600
Br324      Br  0.88324939  0.76488992  0.02275120    -0.03800
C325        C  0.84651324  0.11624662  0.93085776    -0.11200
C326        C  0.81703304  0.14716648  0.94023262     0.04300
C327        C  0.82957611  0.17886528  0.96028246    -0.11800
C328        C  0.87124393  0.18051365  0.97090905     0.19100
C329        C  0.90157493  0.15222696  0.95937671    -0.08800
C330        C  0.88913433  0.12057925  0.93925455    -0.01800
H331        H  0.80622587  0.20087431  0.96887808     0.05600
C332        C  0.88079199  0.20624369  0.99759794     0.21100
H333        H  0.91216101  0.09716518  0.93222467     0.10800
C334        C  0.87105100  0.18899827  0.02569384    -0.15100
C335        C  0.88444390  0.20901877  0.05191396     0.03800
C336        C  0.90828916  0.24689744  0.05018701    -0.10500
C337        C  0.91509995  0.26588190  0.02206031    -0.00500
C338        C  0.90158111  0.24569025  0.99578153    -0.05600
H339        H  0.85412883  0.15906580  0.02717433     0.06800
H340        H  0.93303694  0.29517828  0.02037720     0.10200
Br341      Br  0.95917353  0.15259851  0.97312643    -0.05300
Br342      Br  0.75904230  0.14690048  0.92719587    -0.02300
Br343      Br  0.86890424  0.18332989  0.08936817     0.00600
Br344      Br  0.91363437  0.27179452  0.95792068    -0.03800
C345        C  0.00666083  0.60774967  0.63636665    -0.11200
C346        C  0.99319153  0.57966394  0.61352154     0.04300
C347        C  0.00400621  0.53676488  0.61510293    -0.11800
C348        C  0.02715798  0.52095790  0.63938160     0.19100
C349        C  0.03834903  0.54825841  0.66299363    -0.08800
C350        C  0.02852543  0.59136501  0.66119224    -0.01800
H351        H  0.99529320  0.51576375  0.59687351     0.05600
C352        C  0.04181877  0.47664199  0.63866947     0.21100
H353        H  0.03838158  0.61223753  0.67919455     0.10800
C354        C  0.08532630  0.46864741  0.63577668    -0.15100
C355        C  0.10051041  0.42708745  0.63410059     0.03800
C356        C  0.07171619  0.39277158  0.63537053    -0.10500
C357        C  0.02824021  0.40096343  0.63853711    -0.00500
C358        C  0.01312480  0.44245655  0.63989168    -0.05600
H359        H  0.10753625  0.49494901  0.63472425     0.06800
H360        H  0.00571349  0.37492167  0.63937883     0.10200
Br361      Br  0.06652007  0.52786064  0.69822712    -0.05300
Br362      Br  0.96274280  0.59762074  0.57849542    -0.02300
Br363      Br  0.16071621  0.41944331  0.63158497     0.00600
Br364      Br  0.95316755  0.45071487  0.64366730    -0.03800
C365        C  0.91242322  0.79895607  0.55794873    -0.11200
C366        C  0.89499593  0.83974870  0.56204189     0.04300
C367        C  0.87192218  0.85862716  0.53899332    -0.11800
C368        C  0.86486446  0.83744173  0.51181225     0.19100
C369        C  0.88048489  0.79589732  0.50817488    -0.08800
C370        C  0.90393246  0.77694768  0.53121173    -0.01800
H371        H  0.86012194  0.89059887  0.54208922     0.05600
C372        C  0.84469556  0.86142329  0.48707608     0.21100
H373        H  0.91658299  0.74537018  0.52784728     0.10800
C374        C  0.86833700  0.87032747  0.46120644    -0.15100
C375        C  0.85487555  0.90097679  0.44058537     0.03800
C376        C  0.81778690  0.92470228  0.44642867    -0.10500
C377        C  0.79221278  0.91264614  0.47086877    -0.00500
C378        C  0.80513774  0.88113580  0.49089489    -0.05600
H379        H  0.89860242  0.85497438  0.45779810     0.06800
H380        H  0.76277623  0.92904581  0.47529341     0.10200
Br381      Br  0.87048264  0.76382243  0.47234691    -0.05300
Br382      Br  0.90017340  0.87102936  0.59880686    -0.02300
Br383      Br  0.88988665  0.90946468  0.40592981     0.00600
Br384      Br  0.76831383  0.86707377  0.52369574    -0.03800
C385        C  0.11682147  0.77443976  0.58379205    -0.11200
C386        C  0.13087814  0.81675476  0.58009000     0.04300
C387        C  0.16559841  0.82527303  0.56166607    -0.11800
C388        C  0.18577448  0.79260084  0.54595030     0.19100
C389        C  0.17295343  0.75033385  0.55038964    -0.08800
C390        C  0.13903970  0.74149095  0.56952785    -0.01800
H391        H  0.17471578  0.85800726  0.55757347     0.05600
C392        C  0.21338165  0.80487998  0.52087599     0.21100
H393        H  0.12859713  0.70884958  0.57202387     0.10800
C394        C  0.25653115  0.81298153  0.52573304    -0.15100
C395        C  0.28064439  0.83460432  0.50412916     0.03800
C396        C  0.26090251  0.84914780  0.47765217    -0.10500
C397        C  0.21854640  0.83785438  0.47210745    -0.00500
C398        C  0.19490051  0.81576452  0.49334689    -0.05600
H399        H  0.27080390  0.80459895  0.54696473     0.06800
H400        H  0.20308731  0.84796769  0.45167301     0.10200
Br401      Br  0.19796395  0.70444005  0.52853615    -0.05300
Br402      Br  0.10057851  0.86490713  0.59534511    -0.02300
Br403      Br  0.33868317  0.84697023  0.51355106     0.00600
Br404      Br  0.13620336  0.80460394  0.48496807    -0.03800
C405        C  0.85279066  0.91805942  0.82385934    -0.11200
C406        C  0.85228774  0.87315633  0.82616905     0.04300
C407        C  0.87235710  0.84862744  0.80436699    -0.11800
C408        C  0.89319001  0.86780813  0.78021941     0.19100
C409        C  0.89301635  0.91232992  0.77745216    -0.08800
C410        C  0.87332243  0.93707250  0.79933662    -0.01800
H411        H  0.87199516  0.81432837  0.80634469     0.05600
C412        C  0.91244368  0.84071070  0.75707018     0.21100
H413        H  0.87378225  0.97131097  0.79701369     0.10800
C414        C  0.88570766  0.81697546  0.73853209    -0.15100
C415        C  0.90184345  0.79394162  0.71444480     0.03800
C416        C  0.94596955  0.79470166  0.70843435    -0.10500
C417        C  0.97291127  0.81660383  0.72831859    -0.00500
C418        C  0.95649858  0.83917441  0.75263453    -0.05600
H419        H  0.85180697  0.81741694  0.74232988     0.06800
H420        H  0.00682944  0.81689078  0.72469886     0.10200
Br421      Br  0.91766600  0.94059664  0.74352658    -0.05300
Br422      Br  0.82712982  0.84271522  0.85905746    -0.02300
Br423      Br  0.86074452  0.76401794  0.69059356     0.00600
Br424      Br  0.99520896  0.86729646  0.77927176    -0.03800
loop_ 
_geom_bond_atom_site_label_1 
_geom_bond_atom_site_label_2 
_geom_bond_distance 
_geom_bond_site_symmetry_2 
_ccdc_geom_bond_type 
O1            C4   1.263       .  A
O1           Cd6   2.428   1_455  S
C2           O11   1.261       .  A
C2            O7   1.267   1_655  A
C2          C416   1.484       .  S
O3            C9   1.265       .  A
O3           Cd6   2.480       .  S
C4           O12   1.266       .  A
C4          C385   1.475       .  S
C5           O10   1.267       .  A
C5            O8   1.264   1_455  A
C5          C345   1.475       .  S
Cd6          O13   2.441       .  S
Cd6          O12   2.471   1_655  S
Cd6          O11   2.423       .  S
Cd6           O7   2.482   1_655  S
Cd6          O10   2.445   1_655  S
Cd6           O8   2.434       .  S
C9           O13   1.264       .  A
C9          C365   1.478       .  S
O14          C17   1.267       .  A
O14         Cd19   2.491   1_545  S
C15          O24   1.262       .  A
C15          O20   1.268       .  A
C15         C405   1.479       .  S
O16          C22   1.264       .  A
O16         Cd19   2.468       .  S
C17          O25   1.261       .  A
C17         C325   1.474       .  S
C18          O23   1.266   1_545  A
C18          O21   1.267       .  A
C18         C285   1.481       .  S
Cd19         O26   2.440       .  S
Cd19         O25   2.421   1_565  S
Cd19         O24   2.425       .  S
Cd19         O20   2.476       .  S
Cd19         O23   2.413       .  S
Cd19         O21   2.453   1_565  S
C22          O26   1.262       .  A
C22         C305   1.475       .  S
O27          C30   1.263       .  A
O27         Cd32   2.456       .  S
C28          O37   1.262       .  A
C28          O33   1.265       .  A
C28         C245   1.481       .  S
O29          C35   1.265       .  A
O29         Cd32   2.486       .  S
C30          O38   1.269       .  A
C30         C276   1.492       .  S
C31          O36   1.265       .  A
C31          O34   1.264   1_655  A
C31         C225   1.475       .  S
Cd32         O39   2.441       .  S
Cd32         O38   2.496       .  S
Cd32         O37   2.456   1_655  S
Cd32         O33   2.483   1_655  S
Cd32         O36   2.463       .  S
Cd32         O34   2.461   1_655  S
C35          O39   1.263       .  A
C35         C336   1.475       .  S
O40          C43   1.269       .  A
O40         Cd45   2.491       .  S
C41          O50   1.264       .  A
C41          O46   1.267       .  A
C41         C376   1.488       .  S
O42          C48   1.267       .  A
O42         Cd45   2.494       .  S
C43          O51   1.264       .  A
C43         C265   1.483       .  S
C44          O49   1.266       .  A
C44          O47   1.266       .  A
C44         C196   1.485       .  S
Cd45         O52   2.420       .  S
Cd45         O51   2.438       .  S
Cd45         O50   2.445   1_545  S
Cd45         O46   2.487   1_545  S
Cd45         O49   2.461       .  S
Cd45         O47   2.442       .  S
C48          O52   1.264       .  A
C48         C205   1.483       .  S
O53          C56   1.268       .  A
O53         Cd58   2.483       .  S
C54          O63   1.264       .  A
C54          O59   1.268       .  A
C54         C176   1.479       .  S
O55          C61   1.267       .  A
O55         Cd58   2.473       .  S
C56          O64   1.265       .  A
C56         C216   1.482   1_455  S
C57          O62   1.267       .  A
C57          O60   1.265       .  A
C57         C356   1.471       .  S
Cd58         O65   2.423       .  S
Cd58         O64   2.433       .  S
Cd58         O63   2.425       .  S
Cd58         O59   2.477       .  S
Cd58         O62   2.459       .  S
Cd58         O60   2.418       .  S
C61          O65   1.266       .  A
C61         C145   1.483       .  S
O66          C69   1.268       .  A
O66         Cd71   2.475       .  S
C67          O76   1.265       .  A
C67          O72   1.267       .  A
C67         C165   1.475       .  S
O68          C74   1.270       .  A
O68         Cd71   2.503       .  S
C69          O77   1.265       .  A
C69         C136   1.482   1_545  S
C70          O75   1.269       .  A
C70          O73   1.262       .  A
C70         C296   1.481       .  S
Cd71         O78   2.412       .  S
Cd71         O77   2.439       .  S
Cd71         O76   2.464       .  S
Cd71         O72   2.464       .  S
Cd71         O75   2.483       .  S
Cd71         O73   2.429       .  S
C74          O78   1.265       .  A
C74         C256   1.490       .  S
O79          C82   1.265       .  A
O79         Cd84   2.444       .  S
C80          O89   1.263   1_545  A
C80          O85   1.267       .  A
C80         C156   1.483       .  S
O81          C87   1.264       .  A
O81         Cd84   2.411       .  S
C82          O90   1.266       .  A
C82         C105   1.480       .  S
C83          O88   1.269       .  A
C83          O86   1.262       .  A
C83         C185   1.483       .  S
Cd84         O91   2.498       .  S
Cd84         O90   2.442       .  S
Cd84         O89   2.440       .  S
Cd84         O85   2.457   1_565  S
Cd84         O88   2.464       .  S
Cd84         O86   2.417       .  S
C87          O91   1.267       .  A
C87         C396   1.477       .  S
O92          C95   1.266       .  A
O92         Cd97   2.476       .  S
C93         O102   1.265       .  A
C93          O98   1.266       .  A
C93         C316   1.480   1_455  S
O94         C100   1.267       .  A
O94         Cd97   2.484       .  S
C95         O103   1.262       .  A
C95         C116   1.473       .  S
C96         O101   1.265       .  A
C96          O99   1.265       .  A
C96         C236   1.485       .  S
Cd97        O104   2.432       .  S
Cd97        O103   2.440       .  S
Cd97        O102   2.435       .  S
Cd97         O98   2.465       .  S
Cd97        O101   2.459       .  S
Cd97         O99   2.452       .  S
C100        O104   1.265       .  A
C100        C125   1.483       .  S
C105        C106   1.417       .  A
C105        C110   1.407       .  A
C106        C107   1.398       .  A
C106       Br122   1.921       .  S
C107        C108   1.399       .  A
C107        H111   1.084       .  S
C108        C112   1.470       .  S
C108        C109   1.404       .  A
C109        C110   1.395       .  A
C109       Br121   1.919       .  S
C110        H113   1.084       .  S
C112        C114   1.399       .  A
C112        C118   1.406       .  A
C114        C115   1.396       .  A
C114        H119   1.084       .  S
C115        C116   1.412       .  A
C115       Br123   1.921       .  S
C116        C117   1.404       .  A
C117        C118   1.398       .  A
C117        H120   1.083       .  S
C118       Br124   1.919       .  S
C125        C126   1.416       .  A
C125        C130   1.406       .  A
C126        C127   1.403       .  A
C126       Br142   1.920       .  S
C127        C128   1.401       .  A
C127        H131   1.083       .  S
C128        C132   1.475   1_554  S
C128        C129   1.404       .  A
C129        C130   1.395       .  A
C129       Br141   1.920   1_554  S
C130        H133   1.083       .  S
C132        C134   1.401       .  A
C132        C138   1.405   1_556  A
C134        C135   1.402       .  A
C134        H139   1.084       .  S
C135        C136   1.414       .  A
C135       Br143   1.919       .  S
C136        C137   1.406       .  A
C137        C138   1.395   1_556  A
C137        H140   1.084   1_556  S
C138       Br144   1.920       .  S
C145        C146   1.417       .  A
C145        C150   1.406       .  A
C146        C147   1.402       .  A
C146       Br162   1.920       .  S
C147        C148   1.402       .  A
C147        H151   1.084       .  S
C148        C152   1.475       .  S
C148        C149   1.407       .  A
C149        C150   1.392       .  A
C149       Br161   1.922       .  S
C150        H153   1.084       .  S
C152        C154   1.400       .  A
C152        C158   1.407       .  A
C154        C155   1.398       .  A
C154        H159   1.084       .  S
C155        C156   1.417       .  A
C155       Br163   1.922       .  S
C156        C157   1.406       .  A
C157        C158   1.396       .  A
C157        H160   1.083       .  S
C158       Br164   1.920       .  S
C165        C166   1.409       .  A
C165        C170   1.405       .  A
C166        C167   1.398       .  A
C166       Br182   1.919       .  S
C167        C168   1.403       .  A
C167        H171   1.084       .  S
C168        C172   1.479       .  S
C168        C169   1.409       .  A
C169        C170   1.400       .  A
C169       Br181   1.919       .  S
C170        H173   1.084       .  S
C172        C174   1.404       .  A
C172        C178   1.407       .  A
C174        C175   1.401       .  A
C174        H179   1.084       .  S
C175        C176   1.412       .  A
C175       Br183   1.919       .  S
C176        C177   1.406       .  A
C177        C178   1.396       .  A
C177        H180   1.084       .  S
C178       Br184   1.919       .  S
C185        C186   1.420   1_565  A
C185        C190   1.406       .  A
C186        C187   1.398       .  A
C186       Br202   1.923       .  S
C187        C188   1.397   1_545  A
C187        H191   1.084       .  S
C188        C192   1.470   1_565  S
C188        C189   1.404       .  A
C189        C190   1.395       .  A
C189       Br201   1.919       .  S
C190        H193   1.083       .  S
C192        C194   1.398       .  A
C192        C198   1.402   1_545  A
C194        C195   1.397       .  A
C194        H199   1.084       .  S
C195        C196   1.417       .  A
C195       Br203   1.921       .  S
C196        C197   1.410       .  A
C197        C198   1.397   1_545  A
C197        H200   1.083   1_545  S
C198       Br204   1.918       .  S
C205        C206   1.416       .  A
C205        C210   1.406       .  A
C206        C207   1.404       .  A
C206       Br222   1.920       .  S
C207        C208   1.402       .  A
C207        H211   1.083       .  S
C208        C212   1.476       .  S
C208        C209   1.405       .  A
C209        C210   1.393       .  A
C209       Br221   1.921       .  S
C210        H213   1.083       .  S
C212        C214   1.401       .  A
C212        C218   1.405       .  A
C214        C215   1.401       .  A
C214        H219   1.084       .  S
C215        C216   1.414       .  A
C215       Br223   1.919       .  S
C216        C217   1.407       .  A
C217        C218   1.397       .  A
C217        H220   1.083       .  S
C218       Br224   1.920       .  S
C225        C226   1.410   1_655  A
C225        C230   1.403       .  A
C226        C227   1.401       .  A
C226       Br242   1.919       .  S
C227        C228   1.403       .  A
C227        H231   1.083       .  S
C228        C232   1.478       .  S
C228        C229   1.408       .  A
C229        C230   1.396   1_455  A
C229       Br241   1.921       .  S
C230        H233   1.084       .  S
C232        C234   1.401       .  A
C232        C238   1.405       .  A
C234        C235   1.398       .  A
C234        H239   1.084       .  S
C235        C236   1.416       .  A
C235       Br243   1.922       .  S
C236        C237   1.409       .  A
C237        C238   1.398       .  A
C237        H240   1.083       .  S
C238       Br244   1.919   1_455  S
C245        C246   1.415       .  A
C245        C250   1.405       .  A
C246        C247   1.400       .  A
C246       Br262   1.921       .  S
C247        C248   1.400       .  A
C247        H251   1.084       .  S
C248        C252   1.476       .  S
C248        C249   1.407       .  A
C249        C250   1.398       .  A
C249       Br261   1.918       .  S
C250        H253   1.084       .  S
C252        C254   1.402       .  A
C252        C258   1.403       .  A
C254        C255   1.406       .  A
C254        H259   1.083       .  S
C255        C256   1.419   1_554  A
C255       Br263   1.920       .  S
C256        C257   1.408       .  A
C257        C258   1.392   1_556  A
C257        H260   1.083       .  S
C258       Br264   1.921       .  S
C265        C266   1.414       .  A
C265        C270   1.405       .  A
C266        C267   1.398       .  A
C266       Br282   1.922       .  S
C267        C268   1.402       .  A
C267        H271   1.083       .  S
C268        C272   1.488       .  S
C268        C269   1.413       .  A
C269        C270   1.403       .  A
C269       Br281   1.919       .  S
C270        H273   1.083       .  S
C272        C274   1.401       .  A
C272        C278   1.411       .  A
C274        C275   1.401       .  A
C274        H279   1.084       .  S
C275        C276   1.419       .  A
C275       Br283   1.922   1_655  S
C276        C277   1.407       .  A
C277        C278   1.401       .  A
C277        H280   1.083       .  S
C278       Br284   1.921       .  S
C285        C286   1.416       .  A
C285        C290   1.407   1_545  A
C286        C287   1.400       .  A
C286       Br302   1.921       .  S
C287        C288   1.401       .  A
C287        H291   1.084       .  S
C288        C292   1.474       .  S
C288        C289   1.405       .  A
C289        C290   1.392   1_545  A
C289       Br301   1.920   1_545  S
C290        H293   1.083       .  S
C292        C294   1.398       .  A
C292        C298   1.406       .  A
C294        C295   1.395       .  A
C294        H299   1.084   1_545  S
C295        C296   1.417       .  A
C295       Br303   1.922   1_545  S
C296        C297   1.407       .  A
C297        C298   1.400       .  A
C297        H300   1.083       .  S
C298       Br304   1.919       .  S
C305        C306   1.412       .  A
C305        C310   1.407       .  A
C306        C307   1.393       .  A
C306       Br322   1.922       .  S
C307        C308   1.401   1_556  A
C307        H311   1.084       .  S
C308        C312   1.473       .  S
C308        C309   1.405       .  A
C309        C310   1.399   1_554  A
C309       Br321   1.918       .  S
C310        H313   1.083   1_556  S
C312        C314   1.400       .  A
C312        C318   1.405       .  A
C314        C315   1.397       .  A
C314        H319   1.083       .  S
C315        C316   1.415       .  A
C315       Br323   1.921       .  S
C316        C317   1.408       .  A
C317        C318   1.396       .  A
C317        H320   1.083       .  S
C318       Br324   1.919       .  S
C325        C326   1.413       .  A
C325        C330   1.403       .  A
C326        C327   1.398       .  A
C326       Br342   1.921       .  S
C327        C328   1.399       .  A
C327        H331   1.084       .  S
C328        C332   1.472       .  S
C328        C329   1.408       .  A
C329        C330   1.398       .  A
C329       Br341   1.919       .  S
C330        H333   1.084       .  S
C332        C334   1.401   1_556  A
C332        C338   1.405       .  A
C334        C335   1.395       .  A
C334        H339   1.083       .  S
C335        C336   1.410       .  A
C335       Br343   1.920       .  S
C336        C337   1.407       .  A
C337        C338   1.401   1_554  A
C337        H340   1.083       .  S
C338       Br344   1.917       .  S
C345        C346   1.415   1_455  A
C345        C350   1.405       .  A
C346        C347   1.396   1_655  A
C346       Br362   1.922       .  S
C347        C348   1.400       .  A
C347        H351   1.084   1_455  S
C348        C352   1.472       .  S
C348        C349   1.405       .  A
C349        C350   1.396       .  A
C349       Br361   1.919       .  S
C350        H353   1.084       .  S
C352        C354   1.403       .  A
C352        C358   1.405       .  A
C354        C355   1.397       .  A
C354        H359   1.084       .  S
C355        C356   1.410       .  A
C355       Br363   1.920       .  S
C356        C357   1.405       .  A
C357        C358   1.394       .  A
C357        H360   1.084       .  S
C358       Br364   1.919   1_455  S
C365        C366   1.411       .  A
C365        C370   1.406       .  A
C366        C367   1.395       .  A
C366       Br382   1.922       .  S
C367        C368   1.403       .  A
C367        H371   1.084       .  S
C368        C372   1.483       .  S
C368        C369   1.409       .  A
C369        C370   1.402       .  A
C369       Br381   1.918       .  S
C370        H373   1.083       .  S
C372        C374   1.403       .  A
C372        C378   1.407       .  A
C374        C375   1.401       .  A
C374        H379   1.083       .  S
C375        C376   1.416       .  A
C375       Br383   1.920       .  S
C376        C377   1.409       .  A
C377        C378   1.397       .  A
C377        H380   1.083       .  S
C378       Br384   1.920       .  S
C385        C386   1.412       .  A
C385        C390   1.407       .  A
C386        C387   1.396       .  A
C386       Br402   1.921       .  S
C387        C388   1.401       .  A
C387        H391   1.084       .  S
C388        C392   1.470       .  S
C388        C389   1.403       .  A
C389        C390   1.397       .  A
C389       Br401   1.917       .  S
C390        H393   1.084       .  S
C392        C394   1.402       .  A
C392        C398   1.404       .  A
C394        C395   1.403       .  A
C394        H399   1.083       .  S
C395        C396   1.414       .  A
C395       Br403   1.918       .  S
C396        C397   1.404       .  A
C397        C398   1.391       .  A
C397        H400   1.083       .  S
C398       Br404   1.921       .  S
C405        C406   1.417       .  A
C405        C410   1.405       .  A
C406        C407   1.397       .  A
C406       Br422   1.923       .  S
C407        C408   1.399       .  A
C407        H411   1.083       .  S
C408        C412   1.474       .  S
C408        C409   1.407       .  A
C409        C410   1.398       .  A
C409       Br421   1.920       .  S
C410        H413   1.083       .  S
C412        C414   1.397       .  A
C412        C418   1.406       .  A
C414        C415   1.395       .  A
C414        H419   1.084       .  S
C415        C416   1.419       .  A
C415       Br423   1.923       .  S
C416        C417   1.409       .  A
C417        C418   1.399       .  A
C417        H420   1.083   1_655  S
C418       Br424   1.920       .  S
