geometry optimzed in LAMMPS
_audit_creation_date              2020-12-01 
_audit_creation_method            'lammps2cif' 
_symmetry_space_group_name_H-M    'P1' 
_symmetry_Int_Tables_number       1 
_symmetry_cell_setting            triclinic 
loop_ 
_symmetry_equiv_pos_as_xyz 
  x,y,z 
_cell_length_a                    50.39832132 
_cell_length_b                    50.29445505342311 
_cell_length_c                    134.75061641620914 
_cell_angle_alpha                 89.75081003212388 
_cell_angle_beta                  90.32725746423858 
_cell_angle_gamma                 121.71380472114417 
loop_ 
_atom_site_label 
_atom_site_type_symbol 
_atom_site_fract_x 
_atom_site_fract_y 
_atom_site_fract_z 
_atom_site_charge 
O1          O  0.13811495  0.22373316  0.26020370    -0.57500
C2          C  0.06821730  0.20188039  0.27996422     0.75100
O3          O  0.15336459  0.19451470  0.28822360    -0.58700
C4          C  0.16306558  0.22333939  0.26016836     0.75100
C5          C  0.16169753  0.28138870  0.28870007     0.77500
Cd6        Cd  0.13333336  0.22249544  0.27851764     1.37500
O7          O  0.08223716  0.21017204  0.27169049    -0.57500
O8          O  0.15308606  0.27880017  0.27973851    -0.56300
C9          C  0.12980227  0.16774863  0.28632290     0.77400
O10         O  0.15951658  0.25737958  0.29258738    -0.58700
O11         O  0.08470159  0.20432211  0.28741533    -0.57200
O12         O  0.17524420  0.22530369  0.26856216    -0.57200
O13         O  0.10826882  0.16695417  0.28122799    -0.56300
O14         O  0.27210046  0.52159805  0.35667667    -0.57500
C15         C  0.18869929  0.47553423  0.36939328     0.75100
O16         O  0.18954270  0.52505327  0.34396365    -0.58700
C17         C  0.28504666  0.53726586  0.34889751     0.75100
C18         C  0.20156834  0.45097075  0.33648501     0.77500
Cd19       Cd  0.21826287  0.50037019  0.35051711     1.37500
O20         O  0.21694654  0.48455612  0.36781905    -0.57500
O21         O  0.20631052  0.44820441  0.34554783    -0.56300
C22         C  0.20685141  0.55051525  0.34855328     0.77400
O23         O  0.20303015  0.47597644  0.33398300    -0.58700
O24         O  0.17347674  0.47611479  0.36195809    -0.57200
O25         O  0.26712139  0.53368271  0.34176088    -0.57200
O26         O  0.22803637  0.55167512  0.35393147    -0.56300
O27         O  0.21185921  0.75845559  0.36453128    -0.57500
C28         C  0.24255171  0.83513171  0.38207252     0.75100
O29         O  0.29325884  0.85022514  0.35459870    -0.58700
C30         C  0.21629990  0.75178401  0.35589878     0.75100
C31         C  0.20260514  0.83228930  0.35100184     0.77500
Cd32       Cd  0.24050990  0.81541024  0.36196500     1.37500
O33         O  0.22776273  0.80651031  0.37969446    -0.57500
O34         O  0.19239493  0.81452702  0.35850531    -0.56300
C35         C  0.30612160  0.84018373  0.36034169     0.77400
O36         O  0.23093478  0.84341872  0.34878116    -0.58700
O37         O  0.25460522  0.85450513  0.37499433    -0.57200
O38         O  0.23121729  0.77464581  0.35004156    -0.57200
O39         O  0.28854507  0.81898562  0.36638928    -0.56300
O40         O  0.01106170  0.87423356  0.28025741    -0.57500
C41         C  0.05959613  0.94617570  0.29709581     0.75100
O42         O  0.96499090  0.85324187  0.30655574    -0.58700
C43         C  0.99332284  0.84480490  0.28006758     0.75100
C44         C  0.05454938  0.86432812  0.31014850     0.77500
Cd45       Cd  0.01702574  0.87982797  0.29836335     1.37500
O46         O  0.05363166  0.92852273  0.28964727    -0.57500
O47         O  0.06214088  0.87514834  0.30145398    -0.56300
C48         C  0.96168030  0.87637583  0.30553824     0.77400
O49         O  0.02853891  0.85892932  0.31327055    -0.58700
O50         O  0.04619099  0.93283385  0.30512350    -0.57200
O51         O  0.98781233  0.83116890  0.28837906    -0.57200
O52         O  0.98401963  0.90056263  0.30158482    -0.56300
O53         O  0.50969833  0.82920925  0.36457366    -0.57500
C54         C  0.54616848  0.79184522  0.38155208     0.75100
O55         O  0.51292519  0.74127853  0.35325245    -0.58700
C56         C  0.48518762  0.81473783  0.35930845     0.75100
C57         C  0.57532784  0.82834757  0.34791276     0.77500
Cd58       Cd  0.52587363  0.79093241  0.36156985     1.37500
O59         O  0.52681005  0.79975028  0.37936639    -0.57500
O60         O  0.58098926  0.82697283  0.35699151    -0.56300
C61         C  0.48892144  0.72453519  0.35848916     0.77400
O62         O  0.54712884  0.81219814  0.34521373    -0.58700
O63         O  0.55746829  0.78506083  0.37431646    -0.57200
O64         O  0.48062431  0.79031676  0.35509581    -0.57200
O65         O  0.48296313  0.73857739  0.36500151    -0.56300
O66         O  0.78842256  0.96385690  0.26650100    -0.57500
C67         C  0.80966197  0.93045322  0.29131539     0.75100
O68         O  0.82380541  0.02905909  0.28932350    -0.58700
C69         C  0.78076319  0.98350107  0.26436510     0.75100
C70         C  0.73853238  0.95208674  0.29690535     0.77500
Cd71       Cd  0.79188694  0.97328875  0.28454181     1.37500
O72         O  0.79793404  0.92770209  0.28274972    -0.57500
O73         O  0.73753485  0.93721405  0.28921232    -0.56300
C74         C  0.84915007  0.03238162  0.28632177     0.77400
O75         O  0.76371888  0.97784002  0.29846097    -0.58700
O76         O  0.81229084  0.95241328  0.29662267    -0.57200
O77         O  0.77520913  0.99570578  0.27161758    -0.57200
O78         O  0.84774697  0.00817173  0.28303379    -0.56300
O79         O  0.16882150  0.07805972  0.20677241    -0.57500
C80         C  0.12777559  0.99868993  0.18968255     0.75100
O81         O  0.15402262  0.09406198  0.17717657    -0.58700
C82         C  0.18798644  0.10713253  0.20582220     0.75100
C83         C  0.22019096  0.06686598  0.18000030     0.77500
Cd84       Cd  0.16831051  0.06525572  0.18906976     1.37500
O85         O  0.13692185  0.01465884  0.19761163    -0.57500
O86         O  0.20959078  0.05362559  0.18828341    -0.56300
C87         C  0.12544775  0.07868458  0.17953749     0.77400
O88         O  0.20778015  0.08079045  0.17613841    -0.58700
O89         O  0.13878453  0.01372244  0.18166756    -0.57200
O90         O  0.19965706  0.11624560  0.19728917    -0.57200
O91         O  0.11747161  0.05776978  0.18605166    -0.56300
O92         O  0.43785587  0.16670818  0.12494488    -0.57500
C93         C  0.42027018  0.09876780  0.10536985     0.75100
O94         O  0.47427162  0.10564411  0.13293455    -0.58700
C95         C  0.45396878  0.17770220  0.13277018     0.75100
C96         C  0.38082160  0.07622369  0.13696228     0.77500
Cd97       Cd  0.43541592  0.11630583  0.12566482     1.37500
O98         O  0.42765495  0.12554713  0.10849351    -0.57500
O99         O  0.38042826  0.09007420  0.12916604    -0.56300
C100        C  0.49241365  0.11706944  0.12556631     0.77400
O101        O  0.40656754  0.07890856  0.13913152    -0.58700
O102        O  0.41786091  0.07929249  0.11187182    -0.57200
O103        O  0.46086425  0.16011909  0.13730366    -0.57200
O104        O  0.48377946  0.12718727  0.11845083    -0.56300
O105        O  0.85622503  0.77892616  0.21577006    -0.57500
C106        C  0.82396630  0.80245784  0.19148230     0.75100
O107        O  0.90445741  0.78324973  0.19028587    -0.58700
C108        C  0.87023213  0.76479678  0.21784640     0.75100
C109        C  0.81146979  0.70790815  0.19037929     0.77500
Cd110      Cd  0.85387309  0.76974991  0.19771050     1.37500
O111        O  0.82336639  0.79447864  0.20046696    -0.57500
O112        O  0.80521368  0.71912623  0.19773952    -0.56300
C113        C  0.91674730  0.81244806  0.19137248     0.77400
O114        O  0.83774866  0.72565551  0.18634578    -0.58700
O115        O  0.83700209  0.79382596  0.18538849    -0.57200
O116        O  0.87465498  0.75142533  0.21069387    -0.57200
O117        O  0.89960339  0.82135519  0.19496091    -0.56300
O118        O  0.67528553  0.45192054  0.13643331    -0.57500
C119        C  0.61590277  0.47640110  0.12531003     0.75100
O120        O  0.58160938  0.41764375  0.15154068    -0.58700
C121        C  0.67167341  0.43065320  0.14233690     0.75100
C122        C  0.66020474  0.50814869  0.15575824     0.77500
Cd123      Cd  0.63129691  0.45507790  0.14287255     1.37500
O124        O  0.63807567  0.47138330  0.12555851    -0.57500
O125        O  0.66580129  0.50984154  0.14658927    -0.56300
C126        C  0.57103386  0.39930124  0.14414062     0.77400
O127        O  0.64048945  0.48138903  0.15918699    -0.58700
O128        O  0.60189203  0.47294284  0.13342608    -0.57200
O129        O  0.65053281  0.42186424  0.14877724    -0.57200
O130        O  0.58835100  0.40718556  0.13659850    -0.56300
O131        O  0.73093591  0.23226329  0.10628585    -0.57500
C132        C  0.81471857  0.30560768  0.09593076     0.75100
O133        O  0.78956929  0.30712413  0.12728245    -0.58700
C134        C  0.71775545  0.22235135  0.11462565     0.75100
C135        C  0.81221876  0.24060938  0.12185197     0.77500
Cd136      Cd  0.78214646  0.27092063  0.11350000     1.37500
O137        O  0.78792576  0.28092793  0.09542164    -0.57500
O138        O  0.79470059  0.22998136  0.11429124    -0.56300
C139        C  0.77395491  0.31702558  0.12298684     0.77400
O140        O  0.81726554  0.26642768  0.12516683    -0.58700
O141        O  0.82746091  0.31246537  0.10441459    -0.57200
O142        O  0.73479971  0.23354037  0.12225081    -0.57200
O143        O  0.76263721  0.30554168  0.11458579    -0.56300
O144        O  0.87917267  0.08661365  0.19505900    -0.57500
C145        C  0.94039524  0.09464520  0.17437039     0.75100
O146        O  0.83724737  0.01686840  0.17203885    -0.58700
C147        C  0.85023058  0.06951093  0.19676414     0.75100
C148        C  0.86343842  0.10779249  0.16395497     0.77500
Cd149      Cd  0.87539282  0.07116903  0.17754330     1.37500
O150        O  0.93046449  0.09787784  0.18261304    -0.57500
O151        O  0.88104087  0.11975114  0.17143732    -0.56300
C152        C  0.85169330  0.00533821  0.17611649     0.77400
O153        O  0.85033824  0.07851873  0.16291178    -0.58700
O154        O  0.92023586  0.08191375  0.16751519    -0.57200
O155        O  0.83296015  0.05550186  0.18938267    -0.57200
O156        O  0.87727325  0.02442093  0.18029830    -0.56300
O157        O  0.12641532  0.51806691  0.43693372    -0.57500
C158        C  0.14015626  0.58060534  0.45881840     0.75100
O159        O  0.10666240  0.49412350  0.47011014    -0.58700
C160        C  0.12283701  0.49131162  0.43599673     0.75100
C161        C  0.19467805  0.53411949  0.45865228     0.77500
Cd162      Cd  0.13333004  0.52123623  0.45494065     1.37500
O163        O  0.13550764  0.57004793  0.45003737    -0.57500
O164        O  0.17165418  0.51146768  0.46303912    -0.56300
C165        C  0.07967500  0.48538140  0.46684681     0.77400
O166        O  0.18893427  0.55043064  0.45292678    -0.58700
O167        O  0.14129242  0.56368246  0.46554557    -0.57200
O168        O  0.12269113  0.47777553  0.44396660    -0.57200
O169        O  0.07731178  0.49082550  0.45780794    -0.56300
O170        O  0.85520078  0.43301220  0.53771479    -0.57500
C171        C  0.79605324  0.37396643  0.51902513     0.75100
O172        O  0.84322657  0.48344826  0.51563879    -0.58700
C173        C  0.86721452  0.46174863  0.53963596     0.75100
C174        C  0.89662207  0.44152068  0.50785751     0.77500
Cd175      Cd  0.84734827  0.43750491  0.51981859     1.37500
O176        O  0.80876280  0.38727464  0.52714509    -0.57500
O177        O  0.88920364  0.42817297  0.51620795    -0.56300
C178        C  0.81376494  0.46757056  0.51498790     0.77400
O179        O  0.88138244  0.45375906  0.50507012    -0.58700
O180        O  0.80830048  0.38977772  0.51121311    -0.57200
O181        O  0.87188186  0.47930226  0.53226924    -0.57200
O182        O  0.80106464  0.43831566  0.51574664    -0.56300
O183        O  0.43752214  0.66350846  0.47603692    -0.57500
C184        C  0.51855893  0.71342649  0.44981093     0.75100
O185        O  0.48193599  0.72202873  0.48161172    -0.58700
C186        C  0.42362621  0.64743117  0.46845039     0.75100
C187        C  0.51888897  0.66422435  0.47896827     0.77500
Cd188      Cd  0.48939034  0.69198610  0.46871377     1.37500
O189        O  0.49072104  0.69077853  0.45073171    -0.57500
O190        O  0.49911146  0.65063170  0.47210897    -0.56300
C191        C  0.48420191  0.74262495  0.47563926     0.77400
O192        O  0.52627039  0.69188261  0.48095100    -0.58700
O193        O  0.53348427  0.72574942  0.45777757    -0.57200
O194        O  0.44050456  0.65102125  0.46102893    -0.57200
O195        O  0.49169745  0.74113071  0.46682492    -0.56300
O196        O  0.64629146  0.52217447  0.53283149    -0.57500
C197        C  0.56941736  0.48531789  0.55077577     0.75100
O198        O  0.56664572  0.50681472  0.51681442    -0.58700
C199        C  0.65165568  0.51623699  0.52417705     0.75100
C200        C  0.56258002  0.42819639  0.52715575     0.77500
Cd201      Cd  0.58930911  0.49354774  0.53055287     1.37500
O202        O  0.59817650  0.49901173  0.54867634    -0.57500
O203        O  0.59036706  0.44596511  0.53005382    -0.56300
C204        C  0.57417949  0.53345592  0.52008294     0.77400
O205        O  0.54688800  0.44083261  0.52545371    -0.58700
O206        O  0.55070024  0.47787856  0.54355886    -0.57200
O207        O  0.62832001  0.50185894  0.51847523    -0.57200
O208        O  0.58827516  0.54151563  0.52834972    -0.56300
O209        O  0.35033594  0.84479160  0.46668319    -0.57500
C210        C  0.30490462  0.86983938  0.45295810     0.75100
O211        O  0.25519543  0.82367986  0.47449321    -0.58700
C212        C  0.35885572  0.84040393  0.47506971     0.75100
C213        C  0.33821577  0.91169025  0.48521830     0.77500
Cd214      Cd  0.31293500  0.85685683  0.47316741     1.37500
O215        O  0.32069732  0.85781167  0.45526849    -0.57500
O216        O  0.34904747  0.91153103  0.47680878    -0.56300
C217        C  0.25522310  0.79934284  0.47688180     0.77400
O218        O  0.31458284  0.88620087  0.48805463    -0.58700
O219        O  0.29327956  0.87662791  0.46009760    -0.57200
O220        O  0.34715334  0.84518478  0.48263313    -0.57200
O221        O  0.28154381  0.80262897  0.47829364    -0.56300
O222        O  0.50590559  0.19719571  0.54270175    -0.57500
C223        C  0.52470320  0.14281823  0.55581059     0.75100
O224        O  0.50207731  0.11531030  0.52501271    -0.58700
C225        C  0.50245925  0.20690188  0.53441581     0.75100
C226        C  0.57865635  0.19999010  0.52805022     0.77500
Cd227      Cd  0.51748160  0.15967539  0.53605964     1.37500
O228        O  0.50445349  0.14958127  0.55374479    -0.57500
O229        O  0.56630618  0.20918260  0.53415280    -0.56300
C230        C  0.47304909  0.10418254  0.52545918     0.77400
O231        O  0.56312772  0.17130265  0.52577698    -0.58700
O232        O  0.54062536  0.14243366  0.54866774    -0.57200
O233        O  0.50258204  0.19205767  0.52684406    -0.57200
O234        O  0.46441761  0.11870873  0.53088564    -0.56300
O235        O  0.11538507  0.65562045  0.93856962    -0.57500
C236        C  0.14429616  0.63154718  0.96131626     0.75100
O237        O  0.15758388  0.72274762  0.96394029    -0.58700
C238        C  0.10651809  0.67324250  0.93524390     0.75100
C239        C  0.06577658  0.65043931  0.96788830     0.77500
Cd240      Cd  0.12093746  0.67129295  0.95587113     1.37500
O241        O  0.12131771  0.62209594  0.95549384    -0.57500
O242        O  0.06652535  0.63523093  0.96058089    -0.56300
C243        C  0.17695732  0.73249368  0.95684656     0.77400
O244        O  0.09067475  0.67632213  0.96961091    -0.58700
O245        O  0.15578532  0.65877263  0.96475723    -0.57200
O246        O  0.10224646  0.68894178  0.94168265    -0.57200
O247        O  0.16958262  0.71464115  0.94943109    -0.56300
O248        O  0.85713283  0.48126274  0.04453493    -0.57500
C249        C  0.80171232  0.50779303  0.02951592     0.75100
O250        O  0.86327771  0.50030861  0.01103883    -0.58700
C251        C  0.86158348  0.45891957  0.04314358     0.75100
C252        C  0.78867267  0.41812157  0.02182086     0.77500
Cd253      Cd  0.83842533  0.47968429  0.02723732     1.37500
O254        O  0.81531998  0.50458952  0.03696484    -0.57500
O255        O  0.78538836  0.43495070  0.02801416    -0.56300
C256        C  0.88938806  0.52133326  0.01448572     0.77400
O257        O  0.81523291  0.42993637  0.01779923    -0.58700
O258        O  0.80771377  0.50067952  0.02119256    -0.57200
O259        O  0.85664506  0.44798170  0.03444980    -0.57200
O260        O  0.89214512  0.52310667  0.02383690    -0.56300
O261        O  0.47018303  0.87754491  0.93299210    -0.57500
C262        C  0.40579850  0.86090343  0.95297955     0.75100
O263        O  0.47281203  0.84939549  0.96460405    -0.58700
C264        C  0.49814265  0.88436966  0.93225573     0.75100
C265        C  0.50163212  0.94209685  0.96149252     0.77500
Cd266      Cd  0.47116025  0.88294867  0.95116925     1.37500
O267        O  0.42193072  0.88018213  0.94621075    -0.57500
O268        O  0.48481839  0.93694004  0.95387801    -0.56300
C269        C  0.46980491  0.82853116  0.95863421     0.77400
O270        O  0.50691409  0.92084526  0.96375694    -0.58700
O271        O  0.41982234  0.85214285  0.95863538    -0.57200
O272        O  0.51455055  0.89405317  0.94009012    -0.57200
O273        O  0.46862298  0.83372217  0.94951722    -0.56300
O274        O  0.58428463  0.18915767  0.02815296    -0.57500
C275        C  0.49735477  0.12080066  0.03796248     0.75100
O276        O  0.50278728  0.17940210  0.01240482    -0.58700
C277        C  0.59564469  0.20724497  0.02073405     0.75100
C278        C  0.52882826  0.11307835  0.00688899     0.77500
Cd279      Cd  0.53105556  0.15716147  0.02098301     1.37500
O280        O  0.52653470  0.14014363  0.03829714    -0.57500
O281        O  0.54523204  0.12054039  0.01470209    -0.56300
C282        C  0.50096726  0.19239943  0.02020674     0.77400
O283        O  0.51256490  0.12534195  0.00569440    -0.58700
O284        O  0.48443978  0.11657879  0.02954720    -0.57200
O285        O  0.57720238  0.20197045  0.01357087    -0.57200
O286        O  0.51301558  0.18899952  0.02796846    -0.56300
O287        O  0.32294145  0.51576738  0.95005292    -0.57500
C288        C  0.36896995  0.59916999  0.96634492     0.75100
O289        O  0.28169358  0.52862467  0.97716197    -0.58700
C290        C  0.29992449  0.48829102  0.95155616     0.75100
C291        C  0.35830518  0.51295509  0.98001940     0.77500
Cd292      Cd  0.32578209  0.53279984  0.96734491     1.37500
O293        O  0.36393097  0.58191398  0.95885340    -0.57500
O294        O  0.36869041  0.52568576  0.97165342    -0.56300
C295        C  0.27006190  0.53429162  0.96964915     0.77400
O296        O  0.33201345  0.50849974  0.98251519    -0.58700
O297        O  0.35436608  0.58566127  0.97419771    -0.57200
O298        O  0.29169499  0.48071534  0.96049758    -0.57200
O299        O  0.28426973  0.53905846  0.96153548    -0.56300
O300        O  0.51595118  0.43681565  0.05364763    -0.57500
C301        C  0.51111720  0.38870844  0.03272804     0.75100
O302        O  0.51934838  0.47297817  0.02120607    -0.58700
C303        C  0.53268719  0.46386106  0.05735521     0.75100
C304        C  0.59569090  0.48583338  0.03065902     0.77500
Cd305      Cd  0.53083509  0.45313033  0.03628344     1.37500
O306        O  0.53628207  0.40757940  0.03715395    -0.57500
O307        O  0.58626229  0.49535231  0.03767762    -0.56300
C308        C  0.49414647  0.46983899  0.02419098     0.77400
O309        O  0.57472168  0.46281764  0.02578830    -0.58700
O310        O  0.49341099  0.39875276  0.03064230    -0.57200
O311        O  0.54608691  0.48616603  0.05122246    -0.57200
O312        O  0.48684890  0.46093722  0.03309356    -0.56300
O313        O  0.14723455  0.11723291  0.70691964    -0.57500
C314        C  0.10187389  0.13897513  0.69093577     0.75100
O315        O  0.18490233  0.15331150  0.67414479    -0.58700
C316        C  0.16162490  0.10278108  0.70689877     0.75100
C317        C  0.11640169  0.06726079  0.67934818     0.77500
Cd318      Cd  0.15137281  0.12705110  0.68874525     1.37500
O319        O  0.10036233  0.11830813  0.68529079    -0.57500
O320        O  0.13967063  0.07421064  0.68481921    -0.56300
C321        C  0.20390705  0.17874513  0.67841085     0.77400
O322        O  0.11220893  0.08932620  0.67719016    -0.58700
O323        O  0.12708041  0.15542672  0.69573506    -0.57200
O324        O  0.17331748  0.10219709  0.69869169    -0.57200
O325        O  0.19944975  0.17986562  0.68757649    -0.56300
O326        O  0.47016257  0.34786404  0.61650040    -0.57500
C327        C  0.47121304  0.29788546  0.63924057     0.75100
O328        O  0.49757414  0.40294295  0.64099363    -0.58700
C329        C  0.47392475  0.37443916  0.61483352     0.75100
C330        C  0.40129773  0.32513060  0.64243441     0.77500
Cd331      Cd  0.46297773  0.34903710  0.63464650     1.37500
O332        O  0.46861797  0.30459110  0.63034389    -0.57500
O333        O  0.40615948  0.31569808  0.63435607    -0.56300
C334        C  0.52102158  0.40007730  0.64180520     0.77400
O335        O  0.42484893  0.34788177  0.64660790    -0.58700
O336        O  0.46924311  0.31455543  0.64587347    -0.57200
O337        O  0.46940792  0.38730216  0.62212555    -0.57200
O338        O  0.51630340  0.37312380  0.64038490    -0.56300
O339        O  0.80458395  0.52211216  0.60595291    -0.57500
C340        C  0.74103434  0.51482397  0.62727004     0.75100
O341        O  0.80392155  0.47812634  0.63367907    -0.58700
C342        C  0.82895353  0.52072425  0.60564778     0.75100
C343        C  0.83851792  0.57374165  0.63493687     0.77500
Cd344      Cd  0.79884064  0.51738577  0.62417268     1.37500
O345        O  0.75076850  0.51536938  0.61856682    -0.57500
O346        O  0.82861652  0.57397334  0.62630171    -0.56300
C347        C  0.77817541  0.45519417  0.63063647     0.77400
O348        O  0.83173232  0.54738093  0.63835128    -0.58700
O349        O  0.75878107  0.51676982  0.63427173    -0.57200
O350        O  0.83971744  0.51883249  0.61394939    -0.57200
O351        O  0.76296321  0.46123245  0.62451934    -0.56300
O352        O  0.87662019  0.79438331  0.70535764    -0.57500
C353        C  0.93258477  0.85236097  0.68428697     0.75100
O354        O  0.84975408  0.76076312  0.67397512    -0.58700
C355        C  0.84936640  0.77105138  0.70666237     0.75100
C356        C  0.83714240  0.83013037  0.68633640     0.77500
Cd357      Cd  0.87132365  0.79917113  0.68760277     1.37500
O358        O  0.92700809  0.83458409  0.69167922    -0.57500
O359        O  0.85074508  0.82926965  0.69411166    -0.56300
C360        C  0.86880866  0.75176383  0.67515819     0.77400
O361        O  0.83780280  0.81504905  0.67890975    -0.58700
O362        O  0.91002111  0.84464157  0.67841242    -0.57200
O363        O  0.83297918  0.75919320  0.69890567    -0.57200
O364        O  0.88862952  0.76480873  0.68205844    -0.56300
O365        O  0.62689528  0.16593334  0.62639046    -0.57500
C366        C  0.67716750  0.22756810  0.64321603     0.75100
O367        O  0.57095412  0.15564123  0.65050476    -0.58700
C368        C  0.59893459  0.14448760  0.62477803     0.75100
C369        C  0.64117480  0.12979822  0.65546857     0.77500
Cd370      Cd  0.62262673  0.16643214  0.64426874     1.37500
O371        O  0.66670442  0.20990327  0.63571073    -0.57500
O372        O  0.64236367  0.13153585  0.64610901    -0.56300
C373        C  0.57954289  0.18430810  0.65011970     0.77400
O374        O  0.62904405  0.14325670  0.65969355    -0.58700
O375        O  0.66402004  0.21549888  0.65140603    -0.57200
O376        O  0.58215259  0.13139457  0.63235099    -0.57200
O377        O  0.60732457  0.20305508  0.64755152    -0.56300
O378        O  0.81367472  0.02442831  0.70062431    -0.57500
C379        C  0.84652884  0.09762128  0.71972696     0.75100
O380        O  0.87929961  0.10969916  0.68598480    -0.58700
C381        C  0.83144685  0.02211500  0.69455954     0.75100
C382        C  0.79007059  0.08656434  0.69025669     0.77500
Cd383      Cd  0.83960150  0.08197408  0.69901679     1.37500
O384        O  0.84473094  0.07308092  0.71656191    -0.57500
O385        O  0.78471452  0.06355939  0.69558776    -0.56300
C386        C  0.90167153  0.12300791  0.69213823     0.77400
O387        O  0.81843821  0.10769697  0.68913666    -0.58700
O388        O  0.84375232  0.11443896  0.71329898    -0.57200
O389        O  0.85191557  0.04709039  0.69040509    -0.57200
O390        O  0.89466579  0.11875286  0.70123630    -0.56300
O391        O  0.18871962  0.74429184  0.86278308    -0.57500
C392        C  0.25264925  0.75235503  0.84429730     0.75100
O393        O  0.19406122  0.68141813  0.84660843    -0.58700
C394        C  0.16025826  0.72532993  0.86474184     0.75100
C395        C  0.17432552  0.76252660  0.83204602     0.77500
Cd396      Cd  0.18670631  0.72572859  0.84571631     1.37500
O397        O  0.23976905  0.75169524  0.85242322    -0.57500
O398        O  0.18967069  0.77346111  0.83999071    -0.56300
C399        C  0.16748239  0.66080234  0.84339899     0.77400
O400        O  0.16430005  0.73402584  0.83032556    -0.58700
O401        O  0.23504887  0.74193872  0.83673792    -0.57200
O402        O  0.14394152  0.70706102  0.85780990    -0.57200
O403        O  0.14933409  0.67009081  0.84095833    -0.56300
O404        O  0.03994233  0.87099052  0.77507189    -0.57500
C405        C  0.11867527  0.95092945  0.76206102     0.75100
O406        O  0.09852107  0.96323335  0.79106807    -0.58700
C407        C  0.02763930  0.86636934  0.78359229     0.75100
C408        C  0.12311394  0.89607378  0.79048637     0.77500
Cd409      Cd  0.08919758  0.91938663  0.78023153     1.37500
O410        O  0.09235865  0.92547994  0.76197293    -0.57500
O411        O  0.11180498  0.88661778  0.78188569    -0.56300
C412        C  0.08124569  0.96947780  0.78595286     0.77400
O413        O  0.12152828  0.91866356  0.79386336    -0.58700
O414        O  0.13255770  0.95886242  0.77035586    -0.57200
O415        O  0.04355851  0.88631410  0.79020034    -0.57200
O416        O  0.06703306  0.95177580  0.77867646    -0.56300
O417        O  0.76185893  0.82797696  0.78855572    -0.57500
C418        C  0.75877030  0.76128837  0.77242266     0.75100
O419        O  0.78474413  0.75179744  0.79770141    -0.58700
C420        C  0.77277259  0.83980616  0.79700866     0.75100
C421        C  0.69695723  0.74387915  0.80244253     0.77500
Cd422      Cd  0.75583921  0.77727258  0.79250138     1.37500
O423        O  0.76225596  0.78742580  0.77457709    -0.57500
O424        O  0.69946529  0.75455597  0.79375895    -0.56300
C425        C  0.81082539  0.77739794  0.79788632     0.77400
O426        O  0.72124856  0.74612506  0.80610530    -0.58700
O427        O  0.75060168  0.74161474  0.77939688    -0.57200
O428        O  0.77473807  0.82224784  0.80334531    -0.57200
O429        O  0.81042984  0.80195728  0.79631601    -0.56300
O430        O  0.49190700  0.73747658  0.87594548    -0.57500
C431        C  0.43691624  0.66301139  0.86220358     0.75100
O432        O  0.46602063  0.76380083  0.85294608    -0.58700
C433        C  0.50728756  0.76700428  0.87519719     0.75100
C434        C  0.53051158  0.72981594  0.84605271     0.77500
Cd435      Cd  0.48235563  0.72740024  0.85787769     1.37500
O436        O  0.43668165  0.68529038  0.86646548    -0.57500
O437        O  0.52574556  0.71994290  0.85489743    -0.56300
C438        C  0.44304814  0.74455794  0.84771298     0.77400
O439        O  0.51428684  0.74054117  0.84288252    -0.58700
O440        O  0.45943044  0.67051811  0.85640100    -0.57200
O441        O  0.51272172  0.77780154  0.86646620    -0.57200
O442        O  0.43950565  0.71791197  0.84667336    -0.56300
O443        O  0.96875644  0.08699811  0.80810008    -0.57500
C444        C  0.93223734  0.14022590  0.78756117     0.75100
O445        O  0.91731060  0.07806031  0.81591424    -0.58700
C446        C  0.98934396  0.09725175  0.80145521     0.75100
C447        C  0.98215960  0.17442058  0.81920744     0.77500
Cd448      Cd  0.95139801  0.12327832  0.80528928     1.37500
O449        O  0.95375296  0.13432251  0.78762266    -0.57500
O450        O  0.95691884  0.14960279  0.82140343    -0.56300
C451        C  0.89473512  0.06564313  0.80982289     0.77400
O452        O  0.99207004  0.17586731  0.81052042    -0.58700
O453        O  0.92048730  0.13993140  0.79589238    -0.57200
O454        O  0.99396303  0.12116984  0.79677571    -0.57200
O455        O  0.89739479  0.08140463  0.80215062    -0.56300
O456        O  0.16137001  0.42679169  0.88706012    -0.57500
C457        C  0.14785352  0.46196105  0.86185387     0.75100
O458        O  0.22050676  0.46552455  0.87330756    -0.58700
C459        C  0.17554123  0.41350622  0.88998012     0.75100
C460        C  0.12761754  0.36132049  0.86072128     0.77500
Cd461      Cd  0.16896909  0.42221479  0.86926256     1.37500
O462        O  0.16328534  0.45414291  0.85654981    -0.57500
O463        O  0.11822225  0.37406463  0.86664971    -0.56300
C464        C  0.23492676  0.46275049  0.86615507     0.77400
O465        O  0.15659381  0.37654168  0.85894907    -0.58700
O466        O  0.14094994  0.45012879  0.87045749    -0.57200
O467        O  0.18366208  0.40157041  0.88331307    -0.57200
O468        O  0.21872126  0.44089690  0.86004061    -0.56300
C469        C  0.02143938  0.22156841  0.84257078    -0.11100
C470        C  0.03950520  0.25168095  0.83856251     0.15400
C471        C  0.03721093  0.25642719  0.82835020     0.02300
C472        C  0.01774000  0.23087218  0.82231693    -0.15500
C473        C  0.99973341  0.20055925  0.82624881    -0.10300
C474        C  0.00133651  0.19604629  0.83656324     0.09100
C475        C  0.06133693  0.27764986  0.84509126     0.10100
S476        S  0.05924582  0.29429224  0.82249046    -0.24600
H477        H  0.01674885  0.23472338  0.81443781     0.20300
S478        S  0.98036343  0.15814660  0.84235045    -0.30300
H479        H  0.02328546  0.21791109  0.85041487     0.10700
C480        C  0.05138951  0.29433795  0.85066752     0.03900
C481        C  0.07342268  0.32084913  0.85595836    -0.12600
C482        C  0.10534840  0.33104830  0.85584163    -0.08300
C483        C  0.11492131  0.31298987  0.85067867     0.07300
C484        C  0.09277007  0.28666356  0.84528927    -0.13400
S485        S  0.01083632  0.28274803  0.85059163    -0.30300
H486        H  0.06578228  0.33426732  0.85994515     0.11600
S487        S  0.15490670  0.32262337  0.85094348    -0.27400
H488        H  0.09991598  0.27323826  0.84105538     0.08800
H489        H  0.95103891  0.15343179  0.83985962     0.27200
H490        H  0.01405801  0.30647490  0.85690737     0.22000
H491        H  0.15025718  0.29659168  0.84556136     0.27300
H492        H  0.06034165  0.31190381  0.83071268     0.16200
C493        C  0.31909630  0.52243015  0.87222858    -0.11100
C494        C  0.32952228  0.53746614  0.86304588     0.15400
C495        C  0.31036621  0.52452566  0.85456373     0.02300
C496        C  0.28017645  0.49836748  0.85560993    -0.15500
C497        C  0.26871628  0.48504838  0.86496929    -0.10300
C498        C  0.28886990  0.49633144  0.87329334     0.09100
C499        C  0.35742733  0.56939026  0.86300079     0.10100
S500        S  0.32200833  0.54200639  0.84241565    -0.24600
H501        H  0.26487096  0.48970264  0.84919397     0.20300
S502        S  0.27598794  0.47812482  0.88535088    -0.30300
H503        H  0.33401958  0.53243187  0.87867948     0.10700
C504        C  0.35426211  0.59529718  0.86443230     0.03900
C505        C  0.38087221  0.62536370  0.86463060    -0.12600
C506        C  0.41075703  0.63029155  0.86333713    -0.08300
C507        C  0.41395033  0.60410980  0.86219282     0.07300
C508        C  0.38722261  0.57393491  0.86203901    -0.13400
S509        S  0.31615500  0.59009085  0.86585931    -0.30300
H510        H  0.37824558  0.64527570  0.86542168     0.11600
S511        S  0.45124165  0.60747261  0.86114424    -0.27400
H512        H  0.38961288  0.55388181  0.86117078     0.08800
H513        H  0.30438345  0.49708118  0.89039373     0.27200
H514        H  0.32645541  0.62164974  0.86758866     0.22000
H515        H  0.46693734  0.63310720  0.86762132     0.27300
H516        H  0.35430309  0.55669532  0.84398623     0.16200
C517        C  0.80923910  0.92780432  0.79551864    -0.11100
C518        C  0.80843342  0.93495159  0.80551997     0.15400
C519        C  0.79275677  0.91042786  0.81244262     0.02300
C520        C  0.78086488  0.87961807  0.80939696    -0.15500
C521        C  0.78326961  0.87250179  0.79948981    -0.10300
C522        C  0.79704592  0.89698354  0.79243209     0.09100
C523        C  0.82735172  0.96815115  0.80853539     0.10100
S524        S  0.78776643  0.91697734  0.82526816    -0.24600
H525        H  0.76977020  0.86101950  0.81484220     0.20300
S526        S  0.80234161  0.89100066  0.77959551    -0.30300
H527        H  0.82118413  0.94659279  0.79017144     0.10700
C528        C  0.85506358  0.97949905  0.81409842     0.03900
C529        C  0.87506399  0.01175513  0.81538457    -0.12600
C530        C  0.86847265  0.03302522  0.81098834    -0.08300
C531        C  0.83951518  0.02148202  0.80610923     0.07300
C532        C  0.81946201  0.98922736  0.80484136    -0.13400
S533        S  0.86716451  0.95349446  0.81853380    -0.30300
H534        H  0.89733764  0.02043331  0.81903186     0.11600
S535        S  0.82717388  0.04663477  0.80114319    -0.27400
H536        H  0.79798018  0.98050416  0.80068137     0.08800
H537        H  0.81415539  0.87171071  0.78172161     0.27200
H538        H  0.89096768  0.97511465  0.82488898     0.22000
H539        H  0.84322082  0.07035112  0.80824890     0.27300
H540        H  0.78998908  0.94575416  0.82375042     0.16200
C541        C  0.57940097  0.70287980  0.83341894    -0.11100
C542        C  0.59729018  0.72794065  0.82697283     0.15400
C543        C  0.59288147  0.75344372  0.82673914     0.02300
C544        C  0.57067966  0.75327023  0.83295180    -0.15500
C545        C  0.55357411  0.72873927  0.83968034    -0.10300
C546        C  0.55795596  0.70319120  0.83985271     0.09100
C547        C  0.62090284  0.72721350  0.82076519     0.10100
S548        S  0.61513826  0.78706968  0.81883524    -0.24600
H549        H  0.56731811  0.77285427  0.83271607     0.20300
S550        S  0.53551208  0.66950659  0.84765542    -0.30300
H551        H  0.58250084  0.68312144  0.83351810     0.10700
C552        C  0.64828686  0.73109283  0.82501798     0.03900
C553        C  0.67168735  0.73361583  0.81882553    -0.12600
C554        C  0.66839966  0.73251368  0.80843790    -0.08300
C555        C  0.63965748  0.72586105  0.80427446     0.07300
C556        C  0.61644053  0.72372584  0.81047375    -0.13400
S557        S  0.65468772  0.73561758  0.83827706    -0.30300
H558        H  0.69350472  0.73863401  0.82210373     0.11600
S559        S  0.63109673  0.72001766  0.79118325    -0.27400
H560        H  0.59491776  0.71982225  0.80725342     0.08800
H561        H  0.54979590  0.68629779  0.85640105     0.27200
H562        H  0.68217474  0.73482553  0.83842361     0.22000
H563        H  0.64729295  0.70457468  0.78966618     0.27300
H564        H  0.64289192  0.78681936  0.81912622     0.16200
C565        C  0.89691841  0.81193274  0.80066851    -0.11100
C566        C  0.90080701  0.79116476  0.79487770     0.15400
C567        C  0.87436898  0.76231229  0.79204463     0.02300
C568        C  0.84454184  0.75660719  0.79406165    -0.15500
C569        C  0.84076983  0.77903944  0.79895576    -0.10300
C570        C  0.86729272  0.80602909  0.80284336     0.09100
C571        C  0.93250066  0.80266707  0.79107224     0.10100
S572        S  0.87718713  0.73300032  0.78530230    -0.24600
H573        H  0.82433212  0.73563907  0.79113651     0.20300
S574        S  0.86497481  0.83464463  0.81019120    -0.30300
H575        H  0.91720068  0.83376050  0.80308683     0.10700
C576        C  0.94064078  0.81389549  0.78125190     0.03900
C577        C  0.97225587  0.83227071  0.77865656    -0.12600
C578        C  0.99573992  0.84014645  0.78574861    -0.08300
C579        C  0.98739867  0.82637385  0.79529170     0.07300
C580        C  0.95593619  0.80809789  0.79787146    -0.13400
S581        S  0.91103099  0.80796014  0.77235092    -0.30300
H582        H  0.97865968  0.84270971  0.77134238     0.11600
S583        S  0.01575057  0.83212245  0.80462497    -0.27400
H584        H  0.94967395  0.79930962  0.80539194     0.08800
H585        H  0.83558843  0.81329138  0.81426828     0.27200
H586        H  0.93121226  0.82317236  0.76431887     0.22000
H587        H  0.03849699  0.83544654  0.79786619     0.27300
H588        H  0.90773527  0.74282156  0.78833306     0.16200
C589        C  0.06379818  0.03374192  0.78345962    -0.11100
C590        C  0.05778108  0.03715740  0.79335757     0.15400
C591        C  0.06345004  0.02116646  0.80090952     0.02300
C592        C  0.07292789  0.00049016  0.79834913    -0.15500
C593        C  0.07697624  0.99551524  0.78839124    -0.10300
C594        C  0.07373794  0.01345705  0.78090620     0.09100
C595        C  0.04118734  0.05351004  0.79540638     0.10100
S596        S  0.05739836  0.02494009  0.81387990    -0.24600
H597        H  0.07568886  0.98709021  0.80413766     0.20300
S598        S  0.08158450  0.01131776  0.76797611    -0.30300
H599        H  0.05966671  0.04614081  0.77765137     0.10700
C600        C  0.05541839  0.08609446  0.79429845     0.03900
C601        C  0.03800778  0.09998569  0.79623227    -0.12600
C602        C  0.00674506  0.08182967  0.79927577    -0.08300
C603        C  0.99251733  0.04907290  0.80010940     0.07300
C604        C  0.00982456  0.03536552  0.79817619    -0.13400
S605        S  0.09582275  0.10992812  0.79068853    -0.30300
H606        H  0.04886038  0.12505360  0.79553140     0.11600
S607        S  0.95177135  0.02333033  0.80289283    -0.27400
H608        H  0.99866454  0.01019913  0.79875211     0.08800
H609        H  0.10570538  0.00559476  0.76972916     0.27200
H610        H  0.09726741  0.13862954  0.79051702     0.22000
H611        H  0.95661373  0.03001627  0.81310723     0.27300
H612        H  0.06293242  0.05535937  0.81320125     0.16200
C613        C  0.40005908  0.78641746  0.84260965    -0.11100
C614        C  0.36956186  0.76068310  0.84170645     0.15400
C615        C  0.36442087  0.73036874  0.84091272     0.02300
C616        C  0.38948065  0.72611773  0.84203237    -0.15500
C617        C  0.41979059  0.75153660  0.84385437    -0.10300
C618        C  0.42532414  0.78221735  0.84349963     0.09100
C619        C  0.34315837  0.76523643  0.84284357     0.10100
S620        S  0.32606041  0.69587499  0.83941095    -0.24600
H621        H  0.38479260  0.70247530  0.84211772     0.20300
S622        S  0.46375804  0.81681455  0.84430713    -0.30300
H623        H  0.40405850  0.80977507  0.84297736     0.10700
C624        C  0.32750847  0.75882319  0.85197718     0.03900
C625        C  0.29905691  0.75737083  0.85241849    -0.12600
C626        C  0.28589827  0.76212824  0.84388841    -0.08300
C627        C  0.30336661  0.77176549  0.83499063     0.07300
C628        C  0.33172600  0.77297854  0.83454554    -0.13400
S629        S  0.34282991  0.75053535  0.86292918    -0.30300
H630        H  0.28605043  0.75038252  0.85928842     0.11600
S631        S  0.29066857  0.78236561  0.82395409    -0.27400
H632        H  0.34429581  0.77869800  0.82759341     0.08800
H633        H  0.47833836  0.80384227  0.83905014     0.27200
H634        H  0.32086309  0.74915562  0.86964274     0.22000
H635        H  0.27593778  0.79539818  0.82908800     0.27300
H636        H  0.31293813  0.71037881  0.83413340     0.16200
C637        C  0.17091469  0.58730709  0.84284555    -0.11100
C638        C  0.14149700  0.56526567  0.84665933     0.15400
C639        C  0.11937670  0.57399531  0.84814454     0.02300
C640        C  0.12774686  0.60492089  0.84632667    -0.15500
C641        C  0.15787918  0.62749447  0.84311179    -0.10300
C642        C  0.17928105  0.61814739  0.84100369     0.09100
C643        C  0.13670826  0.53522598  0.85032583     0.10100
S644        S  0.08073822  0.54719352  0.85281179    -0.24600
H645        H  0.11113238  0.61177402  0.84795997     0.20300
S646        S  0.21785341  0.64450249  0.83618411    -0.30300
H647        H  0.18798728  0.58073567  0.84167516     0.10700
C648        C  0.13662030  0.51322498  0.84387978     0.03900
C649        C  0.13850123  0.48840899  0.84785284    -0.12600
C650        C  0.13972370  0.48469152  0.85817483    -0.08300
C651        C  0.13683987  0.50527777  0.86458610     0.07300
C652        C  0.13593749  0.53050250  0.86059859    -0.13400
S653        S  0.13464174  0.51710104  0.83061151    -0.30300
H654        H  0.14000683  0.47239190  0.84288537     0.11600
S655        S  0.13701965  0.50251717  0.87790420    -0.27400
H656        H  0.13582792  0.54733268  0.86556992     0.08800
H657        H  0.20947927  0.66277638  0.83063919     0.27200
H658        H  0.13135916  0.48839387  0.82809623     0.22000
H659        H  0.11077002  0.47188802  0.87803953     0.27300
H660        H  0.07856936  0.51988185  0.84924538     0.16200
C661        C  0.14045242  0.79156749  0.81241520    -0.11100
C662        C  0.16257966  0.82378374  0.81251992     0.15400
C663        C  0.18866506  0.83546960  0.81888162     0.02300
C664        C  0.19164700  0.81493120  0.82514835    -0.15500
C665        C  0.16934177  0.78266039  0.82517620    -0.10300
C666        C  0.14335158  0.77097210  0.81870460     0.09100
C667        C  0.15587875  0.84475837  0.80674884     0.10100
S668        S  0.21887446  0.87631164  0.81936282    -0.24600
H669        H  0.21183841  0.82429454  0.82999199     0.20300
S670        S  0.11198121  0.73062359  0.81858214    -0.30300
H671        H  0.12003850  0.78258685  0.80768579     0.10700
C672        C  0.15585773  0.84498797  0.79630125     0.03900
C673        C  0.14623847  0.86291999  0.79119729    -0.12600
C674        C  0.13627095  0.88045839  0.79631690    -0.08300
C675        C  0.13690513  0.88047165  0.80684398     0.07300
C676        C  0.14711290  0.86307798  0.81189135    -0.13400
S677        S  0.16818036  0.82250955  0.78948395    -0.30300
H678        H  0.14598932  0.86285501  0.78316460     0.11600
S679        S  0.12256949  0.89979359  0.81435378    -0.27400
H680        H  0.14677150  0.86258143  0.81993516     0.08800
H681        H  0.11035213  0.72763099  0.82898439     0.27200
H682        H  0.16210867  0.82955353  0.77994003     0.22000
H683        H  0.09389358  0.88635295  0.80926084     0.27300
H684        H  0.21554080  0.88320395  0.80947909     0.16200
C685        C  0.92352563  0.15220530  0.76028207    -0.11100
C686        C  0.89103722  0.13772136  0.75954118     0.15400
C687        C  0.87300772  0.12874508  0.76828101     0.02300
C688        C  0.88750585  0.13215602  0.77746865    -0.15500
C689        C  0.91975391  0.14451601  0.77814973    -0.10300
C690        C  0.93810000  0.15610190  0.76947753     0.09100
C691        C  0.87650875  0.12807351  0.74959564     0.10100
S692        S  0.83125531  0.11119460  0.76813370    -0.24600
H693        H  0.87316606  0.12335930  0.78406105     0.20300
S694        S  0.98002289  0.17536081  0.76959727    -0.30300
H695        H  0.93751882  0.15935492  0.75360052     0.10700
C696        C  0.88170668  0.14992405  0.74211242     0.03900
C697        C  0.87017481  0.13925876  0.73250720    -0.12600
C698        C  0.85346583  0.10714985  0.73025469    -0.08300
C699        C  0.84672752  0.08535517  0.73796670     0.07300
C700        C  0.85876955  0.09605021  0.74745792    -0.13400
S701        S  0.90312010  0.19128405  0.74478537    -0.30300
H702        H  0.87524515  0.15605865  0.72664850     0.11600
S703        S  0.82264835  0.04365165  0.73627260    -0.27400
H704        H  0.85452869  0.07921069  0.75323686     0.08800
H705        H  0.98387768  0.18909032  0.77899056     0.27200
H706        H  0.90120557  0.20137370  0.73520226     0.22000
H707        H  0.80166477  0.04516280  0.72970330     0.27300
H708        H  0.83011205  0.12527764  0.75923461     0.16200
C709        C  0.71196849  0.06747435  0.67940724    -0.11100
C710        C  0.71866163  0.09746692  0.67697865     0.15400
C711        C  0.74846113  0.12365260  0.67907309     0.02300
C712        C  0.77115064  0.11924152  0.68334367    -0.15500
C713        C  0.76482237  0.08921241  0.68567968    -0.10300
C714        C  0.73476675  0.06298041  0.68361440     0.09100
C715        C  0.69542369  0.10070111  0.67132704     0.10100
S716        S  0.75938557  0.16319998  0.67615008    -0.24600
H717        H  0.79396541  0.13957404  0.68489751     0.20300
S718        S  0.72449952  0.02317741  0.68548917    -0.30300
H719        H  0.68924176  0.04735603  0.67760814     0.10700
C720        C  0.69752143  0.10397030  0.66095212     0.03900
C721        C  0.67773269  0.11111628  0.65590216    -0.12600
C722        C  0.65587196  0.11523933  0.66101575    -0.08300
C723        C  0.65216463  0.10927128  0.67136678     0.07300
C724        C  0.67216419  0.10231706  0.67640977    -0.13400
S725        S  0.72647099  0.10052657  0.65420252    -0.30300
H726        H  0.68061110  0.11522802  0.64798221     0.11600
S727        S  0.62282966  0.11038146  0.67860307    -0.27400
H728        H  0.67019846  0.09902273  0.68438542     0.08800
H729        H  0.75219877  0.02793015  0.68130184     0.27200
H730        H  0.71716576  0.10369884  0.64463169     0.22000
H731        H  0.59965464  0.09629618  0.67121314     0.27300
H732        H  0.72955630  0.15864929  0.67717743     0.16200
C733        C  0.83939681  0.76645865  0.73464696    -0.11100
C734        C  0.80679496  0.74890307  0.73529783     0.15400
C735        C  0.78886681  0.73428221  0.72674537     0.02300
C736        C  0.80364475  0.74011990  0.71756299    -0.15500
C737        C  0.83619639  0.75993166  0.71671517    -0.10300
C738        C  0.85441635  0.77170103  0.72548159     0.09100
C739        C  0.79214809  0.74943688  0.74469270     0.10100
S740        S  0.74695846  0.70912898  0.72703658    -0.24600
H741        H  0.78932168  0.73022210  0.71098306     0.20300
S742        S  0.89660422  0.79390187  0.72520469    -0.30300
H743        H  0.85297910  0.77716898  0.74130308     0.10700
C744        C  0.79450505  0.73515545  0.75337092     0.03900
C745        C  0.78158977  0.73787758  0.76219672    -0.12600
C746        C  0.76672354  0.75495429  0.76255494    -0.08300
C747        C  0.76364835  0.76847493  0.75375524     0.07300
C748        C  0.77657242  0.76575417  0.74495553    -0.13400
S749        S  0.81412022  0.71369825  0.75322626    -0.30300
H750        H  0.78426572  0.72776342  0.76895353     0.11600
S751        S  0.74330237  0.78909557  0.75322070    -0.27400
H752        H  0.77470230  0.77665745  0.73824945     0.08800
H753        H  0.90153767  0.79678686  0.73553116     0.27200
H754        H  0.81080363  0.70615982  0.76339067     0.22000
H755        H  0.72086215  0.77030218  0.76036444     0.27300
H756        H  0.74520765  0.69890638  0.73687670     0.16200
C757        C  0.85072472  0.96033609  0.68873458    -0.11100
C758        C  0.82081563  0.93338262  0.68814590     0.15400
C759        C  0.79446354  0.93570910  0.68971214     0.02300
C760        C  0.79856421  0.96480421  0.69194252    -0.15500
C761        C  0.82846407  0.99188134  0.69241051    -0.10300
C762        C  0.85489900  0.98958207  0.69081444     0.09100
C763        C  0.81836504  0.90299610  0.68677642     0.10100
S764        S  0.75512237  0.90248929  0.68890826    -0.24600
H765        H  0.77820652  0.96642373  0.69312872     0.20300
S766        S  0.89407422  0.02321303  0.69209483    -0.30300
H767        H  0.87084468  0.95819118  0.68777992     0.10700
C768        C  0.82747975  0.89554272  0.67785808     0.03900
C769        C  0.83000451  0.86906985  0.67748780    -0.12600
C770        C  0.82391414  0.85022776  0.68591500    -0.08300
C771        C  0.81170521  0.85603776  0.69449479     0.07300
C772        C  0.80944870  0.88253804  0.69487652    -0.13400
S773        S  0.83737297  0.92061955  0.66712824    -0.30300
H774        H  0.83921469  0.86457192  0.67089600     0.11600
S775        S  0.79966855  0.83112521  0.70530910    -0.27400
H776        H  0.80181293  0.88791071  0.70167146     0.08800
H777        H  0.90996757  0.00834525  0.68929499     0.27200
H778        H  0.84210873  0.90178112  0.66058759     0.22000
H779        H  0.79174139  0.80369949  0.70010070     0.27300
H780        H  0.76144240  0.88581885  0.68194054     0.16200
C781        C  0.73258454  0.30802459  0.63243049    -0.11100
C782        C  0.73345586  0.32683346  0.64021278     0.15400
C783        C  0.71982592  0.31306306  0.64938975     0.02300
C784        C  0.70381445  0.28062085  0.65038685    -0.15500
C785        C  0.70100666  0.26134528  0.64240418    -0.10300
C786        C  0.71694735  0.27553418  0.63345052     0.09100
C787        C  0.74563178  0.36012869  0.63820552     0.10100
S788        S  0.72040973  0.33546571  0.65990157    -0.24600
H789        H  0.69200332  0.27037695  0.65732737     0.20300
S790        S  0.71755611  0.25383259  0.62293634    -0.30300
H791        H  0.74336931  0.31869976  0.62540215     0.10700
C792        C  0.77778505  0.38204442  0.63728274     0.03900
C793        C  0.78798859  0.41330226  0.63514047    -0.12600
C794        C  0.76655728  0.42288073  0.63386668    -0.08300
C795        C  0.73434611  0.40090238  0.63514585     0.07300
C796        C  0.72426446  0.36976010  0.63716034    -0.13400
S797        S  0.80568172  0.37018089  0.63893303    -0.30300
H798        H  0.81264474  0.43017639  0.63420915     0.11600
S799        S  0.70502555  0.41118494  0.63466960    -0.27400
H800        H  0.69953992  0.35287006  0.63801643     0.08800
H801        H  0.72104730  0.23251924  0.62874027     0.27200
H802        H  0.83251134  0.39956307  0.63701956     0.22000
H803        H  0.72367149  0.44048441  0.63924852     0.27300
H804        H  0.74866152  0.36299116  0.65751498     0.16200
C805        C  0.87847058  0.65853006  0.64261811    -0.11100
C806        C  0.86936016  0.65493413  0.65257554     0.15400
C807        C  0.85515676  0.62516141  0.65704784     0.02300
C808        C  0.84783577  0.59919537  0.65125571    -0.15500
C809        C  0.85448456  0.60230639  0.64106272    -0.10300
C810        C  0.87158867  0.63257296  0.63684901     0.09100
C811        C  0.87060549  0.68136119  0.65772113     0.10100
S812        S  0.84336866  0.61849053  0.66988682    -0.24600
H813        H  0.83493364  0.57617812  0.65461080     0.20300
S814        S  0.88462046  0.63950438  0.62414855    -0.30300
H815        H  0.88989031  0.68151085  0.63922888     0.10700
C816        C  0.89749907  0.70417795  0.66274021     0.03900
C817        C  0.89627640  0.72706556  0.66826602    -0.12600
C818        C  0.86862640  0.72756546  0.66887357    -0.08300
C819        C  0.84188489  0.70480346  0.66361071     0.07300
C820        C  0.84333637  0.68227362  0.65803069    -0.13400
S821        S  0.93287515  0.70335911  0.66238460    -0.30300
H822        H  0.91694464  0.74454511  0.67218503     0.11600
S823        S  0.80468669  0.70176597  0.66414805    -0.27400
H824        H  0.82262519  0.66448874  0.65417663     0.08800
H825        H  0.88846732  0.61378724  0.62359555     0.27200
H826        H  0.95047603  0.72880539  0.66879720     0.22000
H827        H  0.80497416  0.70393961  0.67456270     0.27300
H828        H  0.86704519  0.64789745  0.67335353     0.16200
C829        C  0.49140447  0.23466678  0.63775527    -0.11100
C830        C  0.50083748  0.23465291  0.64756692     0.15400
C831        C  0.49676389  0.25244225  0.65476245     0.02300
C832        C  0.48578192  0.27168077  0.65187385    -0.15500
C833        C  0.47791740  0.27323081  0.64193296    -0.10300
C834        C  0.47933864  0.25309438  0.63490612     0.09100
C835        C  0.51912740  0.21994938  0.64972886     0.10100
S836        S  0.50626673  0.25243204  0.66769207    -0.24600
H837        H  0.48427389  0.28626296  0.65745697     0.20300
S838        S  0.46668920  0.24991427  0.62220644    -0.30300
H839        H  0.49430216  0.22086789  0.63220267     0.10700
C840        C  0.50651360  0.18755082  0.64878781     0.03900
C841        C  0.52623844  0.17574098  0.64977218    -0.12600
C842        C  0.55823890  0.19576952  0.65176644    -0.08300
C843        C  0.56998172  0.22781383  0.65361117     0.07300
C844        C  0.55055729  0.23954493  0.65233098    -0.13400
S845        S  0.46551226  0.16143731  0.64620567    -0.30300
H846        H  0.51705110  0.15117873  0.64844821     0.11600
S847        S  0.60957735  0.25525472  0.65750141    -0.27400
H848        H  0.56017196  0.26439109  0.65324435     0.08800
H849        H  0.43878497  0.24827584  0.62470785     0.27200
H850        H  0.46565396  0.13355380  0.64654908     0.22000
H851        H  0.61220211  0.23349629  0.66335810     0.27300
H852        H  0.50096570  0.22204114  0.66775315     0.16200
C853        C  0.65492954  0.48762998  0.62586501    -0.11100
C854        C  0.64894724  0.49010761  0.63586887     0.15400
C855        C  0.67417102  0.50548569  0.64255041     0.02300
C856        C  0.70427069  0.51522606  0.63933115    -0.15500
C857        C  0.71013366  0.51058201  0.62947530    -0.10300
C858        C  0.68518685  0.49823692  0.62255038     0.09100
C859        C  0.61625449  0.47153476  0.63935027     0.10100
S860        S  0.66916250  0.51191144  0.65538348    -0.24600
H861        H  0.72310748  0.52548036  0.64471520     0.20300
S862        S  0.68963468  0.49303928  0.60958938    -0.30300
H863        H  0.63562743  0.47589032  0.62067909     0.10700
C864        C  0.59296478  0.47657065  0.63571781     0.03900
C865        C  0.56152786  0.45440586  0.63771551    -0.12600
C866        C  0.55302656  0.42709383  0.64311340    -0.08300
C867        C  0.57659423  0.42371772  0.64751682     0.07300
C868        C  0.60784217  0.44578274  0.64552777    -0.13400
S869        S  0.60317216  0.51036122  0.62815984    -0.30300
H870        H  0.54348861  0.45705057  0.63434382     0.11600
S871        S  0.56827454  0.39099158  0.65531850    -0.27400
H872        H  0.62571273  0.44199010  0.64841729     0.08800
H873        H  0.71429350  0.52418022  0.60830861     0.27200
H874        H  0.57251824  0.50273990  0.62616750     0.22000
H875        H  0.53950648  0.38552838  0.65875765     0.27300
H876        H  0.64155221  0.51199836  0.65392144     0.16200
C877        C  0.17539888  0.04984975  0.72366782    -0.11100
C878        C  0.15247834  0.04179936  0.73087946     0.15400
C879        C  0.13595333  0.05738014  0.73097553     0.02300
C880        C  0.14068532  0.07847499  0.72336941    -0.15500
C881        C  0.16232547  0.08527654  0.71574325    -0.10300
C882        C  0.18091124  0.07172834  0.71623415     0.09100
C883        C  0.14564737  0.01651551  0.73803880     0.10100
S884        S  0.10785653  0.05066060  0.74043224    -0.24600
H885        H  0.12652230  0.08885536  0.72326181     0.20300
S886        S  0.21201529  0.08114974  0.70767859    -0.30300
H887        H  0.18883193  0.03866813  0.72375791     0.10700
C888        C  0.11763461  0.98720311  0.73754563     0.03900
C889        C  0.11043321  0.96525730  0.74513163    -0.12600
C890        C  0.13086031  0.97177672  0.75319393    -0.08300
C891        C  0.16036035  0.00018379  0.75312386     0.07300
C892        C  0.16721165  0.02224216  0.74558404    -0.13400
S893        S  0.09072313  0.97799584  0.72735099    -0.30300
H894        H  0.08805610  0.94351885  0.74499572     0.11600
S895        S  0.18951332  0.00924097  0.76258375    -0.27400
H896        H  0.18904423  0.04455668  0.74571916     0.08800
H897        H  0.22285687  0.11327025  0.70741273     0.27200
H898        H  0.07036912  0.94632036  0.72978434     0.22000
H899        H  0.21383008  0.03670824  0.75821083     0.27300
H900        H  0.12222190  0.04356768  0.74808920     0.16200
C901        C  0.98849301  0.16723319  0.69455914    -0.11100
C902        C  0.99536227  0.15142593  0.68746959     0.15400
C903        C  0.97262693  0.13279562  0.68027141     0.02300
C904        C  0.94240571  0.12695914  0.68115931    -0.15500
C905        C  0.93455802  0.13958576  0.68905607    -0.10300
C906        C  0.95847175  0.16201348  0.69528016     0.09100
C907        C  0.02355568  0.14975504  0.68893277     0.10100
S908        S  0.98003754  0.11357227  0.67035868    -0.24600
H909        H  0.92437031  0.11015085  0.67621472     0.20300
S910        S  0.95158438  0.18311119  0.70467341    -0.30300
H911        H  0.00599334  0.18208627  0.69998093     0.10700
C912        C  0.05401470  0.17624774  0.68835833     0.03900
C913        C  0.07965664  0.17269313  0.68974237    -0.12600
C914        C  0.07519691  0.14314610  0.69164263    -0.08300
C915        C  0.04463661  0.11702663  0.69271952     0.07300
C916        C  0.01927058  0.12060872  0.69134549    -0.13400
S917        S  0.06023707  0.21402220  0.68519466    -0.30300
H918        H  0.10313378  0.19256587  0.68879361     0.11600
S919        S  0.03645345  0.07844368  0.69579399    -0.27400
H920        H  0.99585919  0.10039844  0.69211932     0.08800
H921        H  0.92573701  0.18108605  0.69985017     0.27200
H922        H  0.09259248  0.23120561  0.68697234     0.22000
H923        H  0.06377934  0.08866931  0.70140351     0.27300
H924        H  0.01241509  0.13501001  0.66998787     0.16200
C925        C  0.01334312  0.92531935  0.68777714    -0.11100
C926        C  0.01840616  0.93852627  0.67827286     0.15400
C927        C  0.99693076  0.92176598  0.67061158     0.02300
C928        C  0.96967857  0.89342904  0.67279066    -0.15500
C929        C  0.96341678  0.88091259  0.68244987    -0.10300
C930        C  0.98606408  0.89687238  0.68998541     0.09100
C931        C  0.04377878  0.97143197  0.67698623     0.10100
S932        S  0.00234348  0.93594865  0.65801450    -0.24600
H933        H  0.95297303  0.88128420  0.66686935     0.20300
S934        S  0.98080167  0.88377892  0.70268840    -0.30300
H935        H  0.02987653  0.93823793  0.69367330     0.10700
C936        C  0.03712248  0.99530619  0.67628956     0.03900
C937        C  0.06171934  0.02651188  0.67603837    -0.12600
C938        C  0.09292268  0.03452026  0.67671633    -0.08300
C939        C  0.09948142  0.01040149  0.67681747     0.07300
C940        C  0.07484528  0.97914615  0.67707441    -0.13400
S941        S  0.99733874  0.98629184  0.67665781    -0.30300
H942        H  0.05645650  0.04479257  0.67609683     0.11600
S943        S  0.13859357  0.01791892  0.67668830    -0.27400
H944        H  0.07988103  0.96070428  0.67747582     0.08800
H945        H  0.95140524  0.88051306  0.70354354     0.27200
H946        H  0.00411515  0.01693241  0.67512291     0.22000
H947        H  0.15100549  0.04543025  0.67099558     0.27300
H948        H  0.03508042  0.95440844  0.65841678     0.16200
C949        C  0.32929393  0.30412921  0.65773882    -0.11100
C950        C  0.31432706  0.27137199  0.65786314     0.15400
C951        C  0.32739337  0.25699075  0.65249343     0.02300
C952        C  0.35462335  0.27531925  0.64707088    -0.15500
C953        C  0.37023373  0.30803816  0.64714740    -0.10300
C954        C  0.35717180  0.32262640  0.65245570     0.09100
C955        C  0.28476251  0.25210585  0.66337283     0.10100
S956        S  0.31112712  0.21532176  0.65256899    -0.24600
H957        H  0.36464140  0.26386774  0.64316064     0.20300
S958        S  0.37432020  0.36437513  0.65251513    -0.30300
H959        H  0.31913807  0.31527395  0.66173937     0.10700
C960        C  0.28423900  0.25001425  0.67380945     0.03900
C961        C  0.25705627  0.22674183  0.67856811    -0.12600
C962        C  0.23035024  0.20543399  0.67310027    -0.08300
C963        C  0.23032043  0.20943996  0.66268599     0.07300
C964        C  0.25749554  0.23242855  0.65796588    -0.13400
S965        S  0.31885575  0.27534588  0.68100908    -0.30300
H966        H  0.25713395  0.22421586  0.68654712     0.11600
S967        S  0.19656478  0.18622792  0.65494790    -0.27400
H968        H  0.25773719  0.23438093  0.64994794     0.08800
H969        H  0.38727398  0.36945712  0.64296636     0.27200
H970        H  0.30559980  0.26398702  0.69040724     0.22000
H971        H  0.17548993  0.18633521  0.66173157     0.27300
H972        H  0.30086246  0.21049497  0.66246300     0.16200
C973        C  0.27207115  0.45601511  0.92566662    -0.11100
C974        C  0.23972150  0.43873232  0.92718710     0.15400
C975        C  0.22801094  0.43364821  0.93693091     0.02300
C976        C  0.24874293  0.44780498  0.94486271    -0.15500
C977        C  0.28104289  0.46734910  0.94331025    -0.10300
C978        C  0.29285898  0.47014510  0.93361922     0.09100
C979        C  0.21902592  0.42960821  0.91842235     0.10100
S980        S  0.18684538  0.41176347  0.93966293    -0.24600
H981        H  0.23923696  0.44522236  0.95224207     0.20300
S982        S  0.33396605  0.49176450  0.93088891    -0.30300
H983        H  0.28111896  0.45952161  0.91818285     0.10700
C984        C  0.20833633  0.44881458  0.91494852     0.03900
C985        C  0.19149153  0.44130253  0.90602935    -0.12600
C986        C  0.18526492  0.41503030  0.90046304    -0.08300
C987        C  0.19387450  0.39448933  0.90442668     0.07300
C988        C  0.21115707  0.40230628  0.91325546    -0.13400
S989        S  0.21804151  0.48408883  0.92152307    -0.30300
H990        H  0.18505219  0.45718270  0.90305602     0.11600
S991        S  0.18355231  0.35806401  0.89860988    -0.27400
H992        H  0.21874991  0.38716079  0.91608677     0.08800
H993        H  0.34300199  0.48536267  0.94005334     0.27200
H994        H  0.20054149  0.49230049  0.91550163     0.22000
H995        H  0.15509982  0.35241932  0.89468639     0.27300
H996        H  0.17738558  0.39248629  0.93124009     0.16200
C997        C  0.38279420  0.47536016  0.99979239    -0.11100
C998        C  0.41539685  0.49488292  0.99939896     0.15400
C999        C  0.42886523  0.51966862  0.99247248     0.02300
C1000       C  0.40961405  0.52428224  0.98611729    -0.15500
C1001       C  0.37694891  0.50512402  0.98658594    -0.10300
C1002       C  0.36347996  0.48009099  0.99345739     0.09100
C1003       C  0.43486431  0.48787678  0.00588077     0.10100
S1004       S  0.47041677  0.54660404  0.99147999    -0.24600
H1005       H  0.42032056  0.54366718  0.98093357     0.20300
S1006       S  0.32209977  0.45243301  0.99417653    -0.30300
H1007       H  0.37235748  0.45586808  0.00493844     0.10700
C1008       C  0.43515787  0.49088633  0.01627875     0.03900
C1009       C  0.45461563  0.48475761  0.02205481    -0.12600
C1010       C  0.47410949  0.47597616  0.01766201    -0.08300
C1011       C  0.47333664  0.47244600  0.00721212     0.07300
C1012       C  0.45370888  0.47842089  0.00147863    -0.13400
S1013       S  0.41163522  0.50364297  0.02217722    -0.30300
H1014       H  0.45501713  0.48729722  0.03003655     0.11600
S1015       S  0.49595737  0.45897892  0.00105462    -0.27400
H1016       H  0.45293369  0.47576825  0.99349365     0.08800
H1017       H  0.31723553  0.45087040  0.98384759     0.27200
H1018       H  0.42123616  0.50337658  0.03197966     0.22000
H1019       H  0.48574410  0.45899544  0.99131948     0.27300
H1020       H  0.47722855  0.54561579  0.00155891     0.16200
C1021       C  0.47219092  0.24270698  0.03004253    -0.11100
C1022       C  0.48113338  0.26443684  0.02230127     0.15400
C1023       C  0.48965189  0.25790938  0.01306704     0.02300
C1024       C  0.49303652  0.23211860  0.01218920    -0.15500
C1025       C  0.48757753  0.21241035  0.02032166    -0.10300
C1026       C  0.47464176  0.21641028  0.02907043     0.09100
C1027       C  0.48748488  0.29602268  0.02465867     0.10100
S1028       S  0.49872229  0.28296763  0.00239482    -0.24600
H1029       H  0.50219851  0.22884615  0.00535499     0.20300
S1030       S  0.46204357  0.18950092  0.03938736    -0.30300
H1031       H  0.46498701  0.24718260  0.03708513     0.10700
C1032       C  0.46388940  0.30163881  0.02737597     0.03900
C1033       C  0.47204165  0.33214318  0.02992778    -0.12600
C1034       C  0.50335868  0.35699947  0.02989410    -0.08300
C1035       C  0.52676313  0.35115587  0.02698232     0.07300
C1036       C  0.51862163  0.32084414  0.02456827    -0.13400
S1037       S  0.42351963  0.27016649  0.02740965    -0.30300
H1038       H  0.45405994  0.33661600  0.03205609     0.11600
S1039       S  0.56728439  0.38145368  0.02567819    -0.27400
H1040       H  0.53680311  0.31655962  0.02248812     0.08800
H1041       H  0.45417063  0.16308527  0.03360252     0.27200
H1042       H  0.41105163  0.28810902  0.03044391     0.22000
H1043       H  0.56100127  0.40256349  0.02094745     0.27300
H1044       H  0.48054516  0.29532786  0.00525063     0.16200
C1045       C  0.50222083  0.86053917  0.90590291    -0.11100
C1046       C  0.52160560  0.84858543  0.90731539     0.15400
C1047       C  0.53742341  0.85369207  0.91643345     0.02300
C1048       C  0.53142422  0.86817301  0.92420288    -0.15500
C1049       C  0.50993035  0.87781434  0.92309512    -0.10300
C1050       C  0.49647341  0.87536086  0.91363781     0.09100
C1051       C  0.52120393  0.82726954  0.89969310     0.10100
S1052       S  0.56335308  0.83984014  0.91888073    -0.24600
H1053       H  0.54206029  0.86991815  0.93137540     0.20300
S1054       S  0.47120337  0.88986097  0.91102054    -0.30300
H1055       H  0.49041664  0.85708697  0.89884480     0.10700
C1056       C  0.50035957  0.79473709  0.90046750     0.03900
C1057       C  0.49789596  0.77529409  0.89263295    -0.12600
C1058       C  0.51600451  0.78765260  0.88401648    -0.08300
C1059       C  0.53872977  0.82009172  0.88365885     0.07300
C1060       C  0.54054864  0.83959034  0.89137824    -0.13400
S1061       S  0.47555134  0.77816434  0.91120786    -0.30300
H1062       H  0.48054310  0.75055333  0.89301443     0.11600
S1063       S  0.56632445  0.83801946  0.87367913    -0.27400
H1064       H  0.55713069  0.86454068  0.89090993     0.08800
H1065       H  0.48598607  0.91496019  0.91773331     0.27200
H1066       H  0.46240989  0.74661573  0.90858484     0.22000
H1067       H  0.56975603  0.81228241  0.87223335     0.27300
H1068       H  0.57283908  0.84122144  0.90900969     0.16200
C1069       C  0.46262796  0.75011900  0.95773956    -0.11100
C1070       C  0.44047616  0.73415612  0.96520006     0.15400
C1071       C  0.43330603  0.75122001  0.97180206     0.02300
C1072       C  0.44596132  0.78328727  0.97012690    -0.15500
C1073       C  0.46540987  0.79843580  0.96195911    -0.10300
C1074       C  0.47520489  0.78198077  0.95606409     0.09100
C1075       C  0.42319272  0.69946258  0.96531299     0.10100
S1076       S  0.40586047  0.73180223  0.98177757    -0.24600
H1077       H  0.43860060  0.79592013  0.97468557     0.20300
S1078       S  0.50275255  0.79999105  0.94605199    -0.30300
H1079       H  0.46902813  0.73728290  0.95287761     0.10700
C1080       C  0.40359566  0.68193344  0.95730366     0.03900
C1081       C  0.38735181  0.64919876  0.95764258    -0.12600
C1082       C  0.38981733  0.63349352  0.96587778    -0.08300
C1083       C  0.41005087  0.65105933  0.97377346     0.07300
C1084       C  0.42643001  0.68377768  0.97341662    -0.13400
S1085       S  0.39771649  0.70107984  0.94687971    -0.30300
H1086       H  0.37157690  0.63571751  0.95165896     0.11600
S1087       S  0.41659786  0.63315575  0.98436353    -0.27400
H1088       H  0.44190931  0.69714111  0.97948119     0.08800
H1089       H  0.51912332  0.82999632  0.95030834     0.27200
H1090       H  0.37925521  0.67408269  0.94114821     0.22000
H1091       H  0.41340389  0.60749069  0.97911698     0.27300
H1092       H  0.40936779  0.75888658  0.98610366     0.16200
C1093       C  0.55200099  0.06597618  0.99104170    -0.11100
C1094       C  0.52351088  0.04480787  0.98645146     0.15400
C1095       C  0.49688375  0.04624689  0.98866754     0.02300
C1096       C  0.49970121  0.06960370  0.99499176    -0.15500
C1097       C  0.52814774  0.09070715  0.99963330    -0.10300
C1098       C  0.55466122  0.08887801  0.99755903     0.09100
C1099       C  0.52213523  0.02112044  0.97957667     0.10100
S1100       S  0.45835346  0.01812616  0.98409023    -0.24600
H1101       H  0.47911329  0.07040396  0.99665175     0.20300
S1102       S  0.59277376  0.11564028  0.00267299    -0.30300
H1103       H  0.57245686  0.06489416  0.98942409     0.10700
C1104       C  0.51428191  0.02006772  0.96947262     0.03900
C1105       C  0.50923135  0.99476497  0.96363369    -0.12600
C1106       C  0.51258023  0.97070364  0.96758929    -0.08300
C1107       C  0.52327898  0.97354678  0.97751729     0.07300
C1108       C  0.52790335  0.99861903  0.98335078    -0.13400
S1109       S  0.51075907  0.05094983  0.96399762    -0.30300
H1110       H  0.50187179  0.99337974  0.95599371     0.11600
S1111       S  0.52999139  0.94542657  0.98342925    -0.27400
H1112       H  0.53476070  0.99985369  0.99105519     0.08800
H1113       H  0.59015500  0.14209000  0.00193777     0.27200
H1114       H  0.50570858  0.03988651  0.95417909     0.22000
H1115       H  0.49871757  0.92090591  0.98235862     0.27300
H1116       H  0.46273102  0.99274932  0.98374902     0.16200
C1117       C  0.73329208  0.51366894  0.03819024    -0.11100
C1118       C  0.72386348  0.52000667  0.02913569     0.15400
C1119       C  0.74339126  0.52807677  0.02080133     0.02300
C1120       C  0.77014824  0.52639005  0.02141930    -0.15500
C1121       C  0.77825450  0.51711711  0.03022584    -0.10300
C1122       C  0.76032434  0.51219282  0.03887106     0.09100
C1123       C  0.69172234  0.51360094  0.02832993     0.10100
S1124       S  0.73425302  0.53848052  0.00898924    -0.24600
H1125       H  0.78394793  0.53091768  0.01478086     0.20300
S1126       S  0.76976313  0.50145414  0.05059769    -0.30300
H1127       H  0.71829413  0.50794612  0.04458211     0.10700
C1128       C  0.66809598  0.48629795  0.02361783     0.03900
C1129       C  0.63728870  0.47924525  0.02382987    -0.12600
C1130       C  0.62930757  0.49862980  0.02877786    -0.08300
C1131       C  0.65347526  0.52704151  0.03294556     0.07300
C1132       C  0.68426474  0.53390603  0.03282223    -0.13400
S1133       S  0.67661390  0.45897864  0.01803497    -0.30300
H1134       H  0.61907615  0.45743255  0.02064453     0.11600
S1135       S  0.64679301  0.55552580  0.03850083    -0.27400
H1136       H  0.70254982  0.55513208  0.03630685     0.08800
H1137       H  0.74396121  0.49727788  0.05595497     0.27200
H1138       H  0.64704325  0.43926435  0.01374928     0.22000
H1139       H  0.62380804  0.55109012  0.03157289     0.27300
H1140       H  0.71549396  0.54909843  0.01275858     0.16200
C1141       C  0.67455610  0.27327895  0.01173938    -0.11100
C1142       C  0.68669168  0.29056479  0.02048837     0.15400
C1143       C  0.67050582  0.27846977  0.02949271     0.02300
C1144       C  0.64153811  0.25040041  0.02945129    -0.15500
C1145       C  0.62829175  0.23402927  0.02058914    -0.10300
C1146       C  0.64559984  0.24499613  0.01169376     0.09100
C1147       C  0.71359246  0.32298989  0.01978233     0.10100
S1148       S  0.68467095  0.29880941  0.04114632    -0.24600
H1149       H  0.62862536  0.24204224  0.03632708     0.20300
S1150       S  0.63114892  0.22316351  0.00026678    -0.30300
H1151       H  0.68727540  0.28266769  0.00488162     0.10700
C1152       C  0.74464902  0.33025190  0.02010841     0.03900
C1153       C  0.76911686  0.36173275  0.02007752    -0.12600
C1154       C  0.76293033  0.38590504  0.01982140    -0.08300
C1155       C  0.73175569  0.37836799  0.01899540     0.07300
C1156       C  0.70750333  0.34707252  0.01904471    -0.13400
S1157       S  0.75292702  0.29952836  0.02116057    -0.30300
H1158       H  0.79301327  0.36756186  0.02076157     0.11600
S1159       S  0.72136558  0.40755116  0.01785434    -0.27400
H1160       H  0.68358294  0.34138921  0.01862755     0.08800
H1161       H  0.65751853  0.24271104  0.99445008     0.27200
H1162       H  0.78523711  0.31912111  0.02274942     0.22000
H1163       H  0.74855054  0.42952093  0.01277343     0.27300
H1164       H  0.71655432  0.31370051  0.03889067     0.16200
C1165       C  0.10424122  0.70172403  0.88647148    -0.11100
C1166       C  0.12504299  0.70973835  0.89444148     0.15400
C1167       C  0.15743467  0.72685154  0.89263261     0.02300
C1168       C  0.16826090  0.73323521  0.88287628    -0.15500
C1169       C  0.14749334  0.72333324  0.87479675    -0.10300
C1170       C  0.11514082  0.70893076  0.87668809     0.09100
C1171       C  0.11294146  0.69643758  0.90437056     0.10100
S1172       S  0.18606470  0.73917718  0.90244313    -0.24600
H1173       H  0.19313240  0.74474208  0.88160355     0.20300
S1174       S  0.08664132  0.69916043  0.86701243    -0.30300
H1175       H  0.07936845  0.68906995  0.88786509     0.10700
C1176       C  0.10393758  0.71115107  0.91124132     0.03900
C1177       C  0.09955557  0.70151594  0.92121015    -0.12600
C1178       C  0.10377429  0.67723722  0.92439939    -0.08300
C1179       C  0.10920451  0.66020351  0.91716099     0.07300
C1180       C  0.11407474  0.67033289  0.90727702    -0.13400
S1181       S  0.10051311  0.74369030  0.90745027    -0.30300
H1182       H  0.09461611  0.71417924  0.92661623     0.11600
S1183       S  0.11117878  0.62623639  0.92026938    -0.27400
H1184       H  0.12034317  0.65883759  0.90182049     0.08800
H1185       H  0.10615157  0.72570303  0.86120346     0.27200
H1186       H  0.09160145  0.74902181  0.91674636     0.22000
H1187       H  0.11367214  0.61782785  0.91053175     0.27300
H1188       H  0.16857004  0.74327736  0.90968078     0.16200
C1189       C  0.15524659  0.56353029  0.96683194    -0.11100
C1190       C  0.18789513  0.57908619  0.96709995     0.15400
C1191       C  0.20581713  0.61165983  0.96540430     0.02300
C1192       C  0.19081607  0.62810033  0.96393106    -0.15500
C1193       C  0.15817123  0.61269149  0.96366451    -0.10300
C1194       C  0.14018984  0.57997848  0.96517461     0.09100
C1195       C  0.20300318  0.56106230  0.96897290     0.10100
S1196       S  0.24788079  0.63353466  0.96475121    -0.24600
H1197       H  0.20482652  0.65307733  0.96260409     0.20300
S1198       S  0.09816978  0.55812692  0.96546295    -0.30300
H1199       H  0.14144565  0.53850864  0.96807033     0.10700
C1200       C  0.22013263  0.56512270  0.97774568     0.03900
C1201       C  0.23982655  0.55322594  0.97826812    -0.12600
C1202       C  0.24254033  0.53736946  0.97017379    -0.08300
C1203       C  0.22239284  0.53010432  0.96190673     0.07300
C1204       C  0.20310714  0.54229992  0.96135295    -0.13400
S1205       S  0.21820078  0.58697737  0.98801804    -0.30300
H1206       H  0.25485790  0.55836322  0.98466381     0.11600
S1207       S  0.22099700  0.50632457  0.95168214    -0.27400
H1208       H  0.18925770  0.53843862  0.95472296     0.08800
H1209       H  0.09573310  0.58176591  0.97009687     0.27200
H1210       H  0.23882930  0.58399010  0.99432431     0.22000
H1211       H  0.22918110  0.48822772  0.95740797     0.27300
H1212       H  0.25065015  0.60937678  0.96072177     0.16200
C1213       C  0.32572743  0.85147738  0.95450092    -0.11100
C1214       C  0.30696916  0.81926843  0.95640168     0.15400
C1215       C  0.32094351  0.80122973  0.95697356     0.02300
C1216       C  0.35319742  0.81580335  0.95607900    -0.15500
C1217       C  0.37206260  0.84791173  0.95415509    -0.10300
C1218       C  0.35816545  0.86603714  0.95342351     0.09100
C1219       C  0.27276607  0.80433960  0.95737470     0.10100
S1220       S  0.29886338  0.75930277  0.95850927    -0.24600
H1221       H  0.36359163  0.80165703  0.95655629     0.20300
S1222       S  0.38053087  0.90776336  0.95155092    -0.30300
H1223       H  0.31507615  0.86536602  0.95398422     0.10700
C1224       C  0.25731401  0.79020788  0.96633615     0.03900
C1225       C  0.22489692  0.76905368  0.96624081    -0.12600
C1226       C  0.20782382  0.76183845  0.95734443    -0.08300
C1227       C  0.22291189  0.77913749  0.94868549     0.07300
C1228       C  0.25521099  0.80003738  0.94877957    -0.13400
S1229       S  0.27923182  0.79746810  0.97771150    -0.30300
H1230       H  0.21332063  0.75621165  0.97291902     0.11600
S1231       S  0.20248700  0.77448692  0.93716961    -0.27400
H1232       H  0.26697530  0.81148398  0.94194121     0.08800
H1233       H  0.40642683  0.91308987  0.95720768     0.27200
H1234       H  0.25374278  0.77739945  0.98377662     0.22000
H1235       H  0.17369740  0.76540594  0.94159429     0.27300
H1236       H  0.27295260  0.75386104  0.95285172     0.16200
C1237       C  0.98378096  0.59812731  0.97793582    -0.11100
C1238       C  0.98823823  0.60611226  0.98802959     0.15400
C1239       C  0.01743405  0.63151093  0.99119327     0.02300
C1240       C  0.04197390  0.64661057  0.98438711    -0.15500
C1241       C  0.03788895  0.63763119  0.97435909    -0.10300
C1242       C  0.00779928  0.61417493  0.97105725     0.09100
C1243       C  0.96295825  0.58578899  0.99510945     0.10100
S1244       S  0.02498031  0.64544996  0.00381984    -0.24600
H1245       H  0.06468102  0.66490660  0.98702789     0.20300
S1246       S  0.99821719  0.60385803  0.95817739    -0.30300
H1247       H  0.96141374  0.57892962  0.97539203     0.10700
C1248       C  0.93253180  0.58026462  0.99415030     0.03900
C1249       C  0.90886081  0.55863213  0.00046632    -0.12600
C1250       C  0.91506633  0.54296668  0.00789010    -0.08300
C1251       C  0.94557819  0.54884052  0.00894757     0.07300
C1252       C  0.96907463  0.57003039  0.00254672    -0.13400
S1253       S  0.92402279  0.60162785  0.98518072    -0.30300
H1254       H  0.88550636  0.55435053  0.99977864     0.11600
S1255       S  0.95571928  0.52909015  0.01800564    -0.27400
H1256       H  0.99222391  0.57373096  0.00321571     0.08800
H1257       H  0.01736447  0.63465332  0.95466473     0.27200
H1258       H  0.89207085  0.58727723  0.98731884     0.22000
H1259       H  0.92703794  0.50044569  0.01758683     0.27300
H1260       H  0.99410613  0.63660507  0.00595469     0.16200
C1261       C  0.59234758  0.14331618  0.59672519    -0.11100
C1262       C  0.56086422  0.13355355  0.59557826     0.15400
C1263       C  0.54124358  0.12361503  0.60395673     0.02300
C1264       C  0.55401858  0.12570826  0.61336275    -0.15500
C1265       C  0.58593494  0.13701339  0.61460852    -0.10300
C1266       C  0.60500834  0.14475480  0.60609988     0.09100
C1267       C  0.54960854  0.13488583  0.58557038     0.10100
S1268       S  0.50005603  0.10910922  0.60319994    -0.24600
H1269       H  0.53905371  0.11957263  0.61978965     0.20300
S1270       S  0.64551812  0.15653220  0.60663130    -0.30300
H1271       H  0.60727337  0.15026749  0.59025988     0.10700
C1272       C  0.54205547  0.15739080  0.58308066     0.03900
C1273       C  0.53224121  0.15820487  0.57340143    -0.12600
C1274       C  0.53073320  0.13760023  0.56610867    -0.08300
C1275       C  0.53804623  0.11491406  0.56866635     0.07300
C1276       C  0.54756821  0.11393045  0.57834723    -0.13400
S1277       S  0.54680387  0.18629423  0.59202201    -0.30300
H1278       H  0.52715073  0.17592907  0.57136947     0.11600
S1279       S  0.53515600  0.08629173  0.56000125    -0.27400
H1280       H  0.55337008  0.09663886  0.58029082     0.08800
H1281       H  0.64150441  0.13610991  0.61445112     0.27200
H1282       H  0.53679184  0.20193998  0.58582142     0.22000
H1283       H  0.50953151  0.08330554  0.55474075     0.27300
H1284       H  0.49560357  0.09750271  0.59347242     0.16200
C1285       C  0.38941215  0.99548480  0.49385296    -0.11100
C1286       C  0.38863784  0.99138280  0.50414185     0.15400
C1287       C  0.36912258  0.96138684  0.50825555     0.02300
C1288       C  0.35187003  0.93589254  0.50191687    -0.15500
C1289       C  0.35339727  0.93979301  0.49155447    -0.10300
C1290       C  0.37177788  0.97022586  0.48753193     0.09100
C1291       C  0.40939461  0.01899557  0.51022201     0.10100
S1292       S  0.36607321  0.95396233  0.52143926    -0.24600
H1293       H  0.33788478  0.91272377  0.50510307     0.20300
S1294       S  0.37352184  0.97868899  0.47445356    -0.30300
H1295       H  0.40407127  0.01864747  0.49071795     0.10700
C1296       C  0.43849399  0.02483070  0.51355248     0.03900
C1297       C  0.45880005  0.05288008  0.51848598    -0.12600
C1298       C  0.45069448  0.07534747  0.52006724    -0.08300
C1299       C  0.42160212  0.06948657  0.51653319     0.07300
C1300       C  0.40117745  0.04125332  0.51177048    -0.13400
S1301       S  0.45008432  0.99697299  0.51125807    -0.30300
H1302       H  0.48107852  0.05730805  0.52114804     0.11600
S1303       S  0.40997373  0.09772791  0.51721186    -0.27400
H1304       H  0.37909787  0.03699492  0.50893744     0.08800
H1305       H  0.34158934  0.95717728  0.47274268     0.27200
H1306       H  0.48002176  0.01453851  0.51551215     0.22000
H1307       H  0.43953094  0.12333716  0.51466206     0.27300
H1308       H  0.37371172  0.98391737  0.52442831     0.16200
C1309       C  0.51593212  0.45636279  0.57306770    -0.11100
C1310       C  0.53059424  0.44478306  0.57898891     0.15400
C1311       C  0.55994503  0.45017580  0.57614769     0.02300
C1312       C  0.57318274  0.46556661  0.56719987    -0.15500
C1313       C  0.55784645  0.47587370  0.56101039    -0.10300
C1314       C  0.52939295  0.47217648  0.56419225     0.09100
C1315       C  0.51444087  0.42668049  0.58798212     0.10100
S1316       S  0.58099852  0.43677659  0.58335373    -0.24600
H1317       H  0.59494282  0.46814950  0.56483528     0.20300
S1318       S  0.50921922  0.48718085  0.55731281    -0.30300
H1319       H  0.49370882  0.45282709  0.57535378     0.10700
C1320       C  0.51478594  0.44177135  0.59677091     0.03900
C1321       C  0.50014679  0.42390607  0.60524949    -0.12600
C1322       C  0.48533539  0.39109382  0.60519457    -0.08300
C1323       C  0.48446755  0.37595323  0.59624740     0.07300
C1324       C  0.49903600  0.39399277  0.58774374    -0.13400
S1325       S  0.53512379  0.48392314  0.59728908    -0.30300
H1326       H  0.50120217  0.43575650  0.61206133     0.11600
S1327       S  0.46446202  0.33385918  0.59542903    -0.27400
H1328       H  0.49869701  0.38273577  0.58087255     0.08800
H1329       H  0.53642381  0.51334943  0.55350076     0.27200
H1330       H  0.53192283  0.48627409  0.60755807     0.22000
H1331       H  0.47327459  0.33236984  0.58565862     0.27300
H1332       H  0.56931313  0.43800250  0.59266903     0.16200
C1333       C  0.55411851  0.34928051  0.52431841    -0.11100
C1334       C  0.52425049  0.32962351  0.52825312     0.15400
C1335       C  0.50615404  0.34222909  0.53103531     0.02300
C1336       C  0.51861947  0.37435452  0.53003993    -0.15500
C1337       C  0.54889795  0.39423487  0.52639301    -0.10300
C1338       C  0.56656833  0.38135955  0.52329590     0.09100
C1339       C  0.51374263  0.29654587  0.52995092     0.10100
S1340       S  0.46769367  0.31887370  0.53629791    -0.24600
H1341       H  0.50506293  0.38408167  0.53253904     0.20300
S1342       S  0.60504762  0.40448213  0.51801313    -0.30300
H1343       H  0.56800413  0.33956449  0.52216647     0.10700
C1344       C  0.50481712  0.27540758  0.52202651     0.03900
C1345       C  0.49866935  0.24523257  0.52383846    -0.12600
C1346       C  0.50134692  0.23572764  0.53344436    -0.08300
C1347       C  0.50801361  0.25652984  0.54149049     0.07300
C1348       C  0.51457835  0.28674034  0.53960970    -0.13400
S1349       S  0.50208187  0.28723484  0.50957665    -0.30300
H1350       H  0.49317558  0.22950733  0.51764669     0.11600
S1351       S  0.51005123  0.24699812  0.55426864    -0.27400
H1352       H  0.52107427  0.30304164  0.54570925     0.08800
H1353       H  0.59941533  0.42594291  0.51320183     0.27200
H1354       H  0.49272967  0.25858862  0.50494293     0.22000
H1355       H  0.48146569  0.21821657  0.55384463     0.27300
H1356       H  0.45985879  0.29061721  0.53169763     0.16200
C1357       C  0.47024954  0.80907610  0.47392635    -0.11100
C1358       C  0.44329132  0.79691986  0.47968865     0.15400
C1359       C  0.43323163  0.76979244  0.48540703     0.02300
C1360       C  0.44957743  0.75436349  0.48485401    -0.15500
C1361       C  0.47508972  0.76501938  0.47842894    -0.10300
C1362       C  0.48640427  0.79354863  0.47328654     0.09100
C1363       C  0.42335649  0.80999252  0.47844696     0.10100
S1364       S  0.39783131  0.75317625  0.49260904    -0.24600
H1365       H  0.44076392  0.73244374  0.48875647     0.20300
S1366       S  0.52045234  0.81063402  0.46548291    -0.30300
H1367       H  0.47792736  0.83004003  0.46956550     0.10700
C1368       C  0.42264901  0.83015635  0.48548477     0.03900
C1369       C  0.40150162  0.84002579  0.48418666    -0.12600
C1370       C  0.38097370  0.82980000  0.47602368    -0.08300
C1371       C  0.38162441  0.80917818  0.46907053     0.07300
C1372       C  0.40320374  0.80005687  0.47026031    -0.13400
S1373       S  0.44848815  0.84301678  0.49609333    -0.30300
H1374       H  0.40093675  0.85573932  0.48952856     0.11600
S1375       S  0.35406468  0.79164602  0.45899164    -0.27400
H1376       H  0.40341898  0.78395388  0.46498416     0.08800
H1377       H  0.53582572  0.79879234  0.47098947     0.27200
H1378       H  0.43696551  0.86004716  0.50064578     0.22000
H1379       H  0.32811883  0.78550651  0.46469998     0.27300
H1380       H  0.39769692  0.72656686  0.49594459     0.16200
C1381       C  0.56708189  0.64463390  0.49593512    -0.11100
C1382       C  0.54763982  0.61201273  0.49636730     0.15400
C1383       C  0.51959826  0.59690955  0.49087778     0.02300
C1384       C  0.51177500  0.61464600  0.48499988    -0.15500
C1385       C  0.53083801  0.64739440  0.48461754    -0.10300
C1386       C  0.55916130  0.66249231  0.49004948     0.09100
C1387       C  0.55712389  0.59402464  0.50247008     0.10100
S1388       S  0.49251988  0.55513606  0.49112100    -0.24600
H1389       H  0.48988994  0.60266761  0.48094900     0.20300
S1390       S  0.58664678  0.70402634  0.48953132    -0.30300
H1391       H  0.58879668  0.65616063  0.50008201     0.10700
C1392       C  0.56769343  0.57595121  0.49805995     0.03900
C1393       C  0.57276268  0.55616718  0.50401461    -0.12600
C1394       C  0.56773792  0.55433322  0.51429584    -0.08300
C1395       C  0.55758993  0.57290131  0.51871005     0.07300
C1396       C  0.55276878  0.59283841  0.51275762    -0.13400
S1397       S  0.57475157  0.57817193  0.48486214    -0.30300
H1398       H  0.58096623  0.54224996  0.50067302     0.11600
S1399       S  0.54842544  0.57076164  0.53171425    -0.27400
H1400       H  0.54419935  0.60647391  0.51609176     0.08800
H1401       H  0.58297845  0.70640813  0.47926707     0.27200
H1402       H  0.58385397  0.55611142  0.48457358     0.22000
H1403       H  0.53583079  0.53839729  0.53259700     0.27300
H1404       H  0.49904330  0.55012216  0.50086013     0.16200
C1405       C  0.84510638  0.51886019  0.57813685    -0.11100
C1406       C  0.86390044  0.50597329  0.57849699     0.15400
C1407       C  0.87459999  0.50213384  0.58776768     0.02300
C1408       C  0.86390852  0.50848617  0.59647234    -0.15500
C1409       C  0.84330232  0.51945040  0.59618064    -0.10300
C1410       C  0.83518287  0.52616338  0.58682120     0.09100
C1411       C  0.86933350  0.49432129  0.56912411     0.10100
S1412       S  0.90088560  0.48812370  0.58899171    -0.24600
H1413       H  0.87105206  0.50382663  0.60353789     0.20300
S1414       S  0.81229747  0.54391501  0.58535916    -0.30300
H1415       H  0.83747732  0.52257682  0.57100776     0.10700
C1416       C  0.85362113  0.46205455  0.56708212     0.03900
C1417       C  0.85559009  0.45200829  0.55758051    -0.12600
C1418       C  0.87270277  0.47352409  0.54999845    -0.08300
C1419       C  0.89049361  0.50579220  0.55235259     0.07300
C1420       C  0.88814081  0.51580954  0.56180800    -0.13400
S1421       S  0.82860252  0.43363117  0.57624765    -0.30300
H1422       H  0.84190450  0.42729957  0.55588589     0.11600
S1423       S  0.91638745  0.53540641  0.54367503    -0.27400
H1424       H  0.90066446  0.54060047  0.56343905     0.08800
H1425       H  0.82762360  0.56560094  0.59307228     0.27200
H1426       H  0.82336987  0.40701981  0.57108842     0.22000
H1427       H  0.92644320  0.51677837  0.53935210     0.27300
H1428       H  0.91474933  0.49814404  0.57960681     0.16200
C1429       C  0.65078454  0.27420357  0.51936468    -0.11100
C1430       C  0.67262184  0.26496243  0.51926737     0.15400
C1431       C  0.66262242  0.23339068  0.52113170     0.02300
C1432       C  0.63135758  0.21215151  0.52348824    -0.15500
C1433       C  0.60986559  0.22179030  0.52402749    -0.10300
C1434       C  0.61953552  0.25297356  0.52159700     0.09100
C1435       C  0.70593377  0.28967543  0.51842312     0.10100
S1436       S  0.68876979  0.21908216  0.52098613    -0.24600
H1437       H  0.62405449  0.18824333  0.52531157     0.20300
S1438       S  0.59331609  0.26726019  0.52128666    -0.30300
H1439       H  0.65835147  0.29841973  0.51795229     0.10700
C1440       C  0.71785635  0.30850779  0.50988416     0.03900
C1441       C  0.74828053  0.33472268  0.51006198    -0.12600
C1442       C  0.76701054  0.34268760  0.51864243    -0.08300
C1443       C  0.75556617  0.32232913  0.52693565     0.07300
C1444       C  0.72512067  0.29642735  0.52677032    -0.13400
S1445       S  0.69408496  0.29956971  0.49885151    -0.30300
H1446       H  0.75690904  0.34988744  0.50363235     0.11600
S1447       S  0.77817400  0.32802091  0.53800570    -0.27400
H1448       H  0.71597850  0.28180666  0.53332193     0.08800
H1449       H  0.56723352  0.23907102  0.51794995     0.27200
H1450       H  0.71548410  0.32602135  0.49333048     0.22000
H1451       H  0.80598405  0.33752671  0.53284148     0.27300
H1452       H  0.71012200  0.24133848  0.51422561     0.16200
C1453       C  0.71654016  0.51753375  0.50958287    -0.11100
C1454       C  0.73577732  0.51932853  0.51740826     0.15400
C1455       C  0.73050699  0.52627641  0.52704762     0.02300
C1456       C  0.70433206  0.52821817  0.52884349    -0.15500
C1457       C  0.68291370  0.52293916  0.52123674    -0.10300
C1458       C  0.69005462  0.51919784  0.51135849     0.09100
C1459       C  0.75560879  0.50626884  0.51582944     0.10100
S1460       S  0.75404741  0.52892057  0.53757548    -0.24600
H1461       H  0.69946642  0.53141891  0.53641925     0.20300
S1462       S  0.66519027  0.51501262  0.50098450    -0.30300
H1463       H  0.72100918  0.51236914  0.50220657     0.10700
C1464       C  0.74325304  0.47426278  0.51750730     0.03900
C1465       C  0.76256381  0.46229766  0.51660072    -0.12600
C1466       C  0.79432308  0.48166133  0.51420237    -0.08300
C1467       C  0.80640800  0.51367441  0.51209686     0.07300
C1468       C  0.78671330  0.52556874  0.51286970    -0.13400
S1469       S  0.70290871  0.44869178  0.52109014    -0.30300
H1470       H  0.75296637  0.43778216  0.51816981     0.11600
S1471       S  0.84647514  0.53957557  0.50838580    -0.27400
H1472       H  0.79561319  0.55003810  0.51143272     0.08800
H1473       H  0.68110751  0.50892879  0.49366876     0.27200
H1474       H  0.70378196  0.42138946  0.52235955     0.22000
H1475       H  0.84579386  0.56716325  0.50798437     0.27300
H1476       H  0.78169245  0.53937960  0.53223974     0.16200
C1477       C  0.20424586  0.71248815  0.47954473    -0.11100
C1478       C  0.18445881  0.70576408  0.47134157     0.15400
C1479       C  0.18279292  0.73017867  0.46677368     0.02300
C1480       C  0.20415929  0.76111371  0.46954658    -0.15500
C1481       C  0.22666195  0.76800524  0.47692891    -0.10300
C1482       C  0.22495665  0.74329760  0.48249245     0.09100
C1483       C  0.16886053  0.67379797  0.46719011     0.10100
S1484       S  0.15553239  0.72355454  0.45694409    -0.24600
H1485       H  0.20478122  0.77988193  0.46536114     0.20300
S1486       S  0.24959153  0.74966565  0.49310140    -0.30300
H1487       H  0.20475908  0.69372191  0.48334528     0.10700
C1488       C  0.17798395  0.66783685  0.45797492     0.03900
C1489       C  0.16593778  0.63686059  0.45498938    -0.12600
C1490       C  0.14583184  0.61179027  0.46116264    -0.08300
C1491       C  0.13562874  0.61782127  0.47015975     0.07300
C1492       C  0.14736806  0.64869180  0.47308827    -0.13400
S1493       S  0.20757666  0.69936932  0.45050313    -0.30300
H1494       H  0.17412986  0.63220764  0.44818891     0.11600
S1495       S  0.10813684  0.58722624  0.47831411    -0.27400
H1496       H  0.14035421  0.65323369  0.48015637     0.08800
H1497       H  0.25372319  0.77872901  0.49564390     0.27200
H1498       H  0.20429033  0.68123015  0.44213558     0.22000
H1499       H  0.09167681  0.56535908  0.47074081     0.27300
H1500       H  0.13367553  0.69224016  0.45936688     0.16200
C1501       C  0.28028347  0.56713180  0.45448078    -0.11100
C1502       C  0.29058459  0.56713385  0.46416503     0.15400
C1503       C  0.26849185  0.55287319  0.47186728     0.02300
C1504       C  0.23689649  0.54068119  0.46981253    -0.15500
C1505       C  0.22689369  0.54198707  0.46018868    -0.10300
C1506       C  0.24872290  0.55403361  0.45237103     0.09100
C1507       C  0.32455770  0.58525837  0.46607314     0.10100
S1508       S  0.27922920  0.55035739  0.48447325    -0.24600
H1509       H  0.22020992  0.53120002  0.47582902     0.20300
S1510       S  0.23783082  0.55335849  0.43954842    -0.30300
H1511       H  0.29707071  0.57799377  0.44853067     0.10700
C1512       C  0.34497730  0.57875801  0.46106018     0.03900
C1513       C  0.37721803  0.59927795  0.46207137    -0.12600
C1514       C  0.38949327  0.62576106  0.46817564    -0.08300
C1515       C  0.36893877  0.63147148  0.47355071     0.07300
C1516       C  0.33673846  0.61136423  0.47231222    -0.13400
S1517       S  0.33003772  0.54417739  0.45347167    -0.30300
H1518       H  0.39299598  0.59468374  0.45809265     0.11600
S1519       S  0.38298355  0.66538361  0.48142042    -0.27400
H1520       H  0.32087077  0.61653640  0.47595893     0.08800
H1521       H  0.20891129  0.52502389  0.44028101     0.27200
H1522       H  0.35908399  0.54931419  0.45049852     0.22000
H1523       H  0.35444164  0.65570377  0.48612640     0.27300
H1524       H  0.30618253  0.55007448  0.48204838     0.16200
C1525       C  0.99724518  0.43989311  0.47652777    -0.11100
C1526       C  0.00020920  0.45837467  0.48472430     0.15400
C1527       C  0.02997471  0.48342646  0.48757948     0.02300
C1528       C  0.05589701  0.48989358  0.48198013    -0.15500
C1529       C  0.05276676  0.47248929  0.47348645    -0.10300
C1530       C  0.02327343  0.44669886  0.47087310     0.09100
C1531       C  0.97186123  0.45152170  0.49000982     0.10100
S1532       S  0.03688239  0.50929093  0.49788684    -0.24600
H1533       H  0.07851216  0.50997225  0.48392437     0.20300
S1534       S  0.01750232  0.42177732  0.46046353    -0.30300
H1535       H  0.97444588  0.42040260  0.47444044     0.10700
C1536       C  0.95457673  0.46472237  0.48693145     0.03900
C1537       C  0.92973119  0.46040949  0.49277835    -0.12600
C1538       C  0.92187049  0.44324233  0.50169976    -0.08300
C1539       C  0.93880255  0.42902594  0.50454077     0.07300
C1540       C  0.96352131  0.43334325  0.49861581    -0.13400
S1541       S  0.96501392  0.48803878  0.47575080    -0.30300
H1542       H  0.91684905  0.47111374  0.49047955     0.11600
S1543       S  0.92982083  0.40541861  0.51562577    -0.27400
H1544       H  0.97701155  0.42315387  0.50078004     0.08800
H1545       H  0.04776786  0.42691962  0.46060627     0.27200
H1546       H  0.94106479  0.49449394  0.47616905     0.22000
H1547       H  0.95653860  0.40325654  0.51565004     0.27300
H1548       H  0.00612064  0.49764579  0.50090262     0.16200
C1549       C  0.87532204  0.40158128  0.05699109    -0.11100
C1550       C  0.86402404  0.40252194  0.06636268     0.15400
C1551       C  0.85916333  0.42703233  0.06861889     0.02300
C1552       C  0.86148958  0.44738816  0.06108269    -0.15500
C1553       C  0.86925135  0.44421023  0.05134626    -0.10300
C1554       C  0.87872462  0.42262789  0.04953447     0.09100
C1555       C  0.85220884  0.37502836  0.07297744     0.10100
S1556       S  0.84695907  0.43153217  0.08073021    -0.24600
H1557       H  0.85499440  0.46430346  0.06270514     0.20300
S1558       S  0.89423946  0.41992591  0.03781391    -0.30300
H1559       H  0.87999677  0.38336581  0.05532291     0.10700
C1560       C  0.81999155  0.35270437  0.07341416     0.03900
C1561       C  0.80868527  0.32882954  0.08052188    -0.12600
C1562       C  0.82889030  0.32688532  0.08729772    -0.08300
C1563       C  0.86145733  0.34794141  0.08635561     0.07300
C1564       C  0.87279689  0.37178753  0.07915929    -0.13400
S1565       S  0.79313334  0.35528164  0.06509262    -0.30300
H1566       H  0.78378178  0.31262984  0.08115203     0.11600
S1567       S  0.88869424  0.34442895  0.09417745    -0.27400
H1568       H  0.89757992  0.38859546  0.07855253     0.08800
H1569       H  0.90945454  0.45212214  0.03572545     0.27200
H1570       H  0.76558878  0.32977067  0.06898265     0.22000
H1571       H  0.91592540  0.37117438  0.09065955     0.27300
H1572       H  0.86068875  0.41769028  0.08605871     0.16200
C1573       C  0.87558843  0.17552496  0.14797281    -0.11100
C1574       C  0.84496200  0.16471340  0.14486476     0.15400
C1575       C  0.82082232  0.13425216  0.14754320     0.02300
C1576       C  0.82775426  0.11563155  0.15340646    -0.15500
C1577       C  0.85815509  0.12700825  0.15688642    -0.10300
C1578       C  0.88246602  0.15702742  0.15390176     0.09100
C1579       C  0.83903131  0.18561383  0.13875830     0.10100
S1580       S  0.78061829  0.11816527  0.14402027    -0.24600
H1581       H  0.80901050  0.09257072  0.15562160     0.20300
S1582       S  0.92282716  0.17263664  0.15709352    -0.30300
H1583       H  0.89429811  0.19856149  0.14572243     0.10700
C1584       C  0.84262781  0.21320724  0.14271789     0.03900
C1585       C  0.83528001  0.23153132  0.13683321    -0.12600
C1586       C  0.82448497  0.22302643  0.12701456    -0.08300
C1587       C  0.82274015  0.19621697  0.12291534     0.07300
C1588       C  0.82960206  0.17769332  0.12886095    -0.13400
S1589       S  0.85470208  0.22414123  0.15546611    -0.30300
H1590       H  0.83672712  0.25191112  0.14007134     0.11600
S1591       S  0.81240530  0.18439628  0.11017622    -0.27400
H1592       H  0.82762829  0.15688632  0.12574664     0.08800
H1593       H  0.92105764  0.14379875  0.15663167     0.27200
H1594       H  0.85748434  0.25345892  0.15507702     0.22000
H1595       H  0.83060867  0.21498272  0.10640323     0.27300
H1596       H  0.78160964  0.14662058  0.14420655     0.16200
C1597       C  0.56787860  0.48821377  0.10584983    -0.11100
C1598       C  0.57941783  0.48261183  0.09718981     0.15400
C1599       C  0.60619077  0.48047434  0.09774927     0.02300
C1600       C  0.61866502  0.48041646  0.10700634    -0.15500
C1601       C  0.60573333  0.48349339  0.11581910    -0.10300
C1602       C  0.58119183  0.48943785  0.11513146     0.09100
C1603       C  0.56213561  0.47680254  0.08774774     0.10100
S1604       S  0.62459500  0.47618219  0.08693956    -0.24600
H1605       H  0.63801627  0.47676958  0.10729102     0.20300
S1606       S  0.56565008  0.49854001  0.12569753    -0.30300
H1607       H  0.54797745  0.49097303  0.10539377     0.10700
C1608       C  0.54599729  0.44674679  0.08351083     0.03900
C1609       C  0.53440374  0.44288918  0.07382150    -0.12600
C1610       C  0.53869856  0.46849728  0.06821145    -0.08300
C1611       C  0.55243942  0.49817221  0.07283222     0.07300
C1612       C  0.56400300  0.50194160  0.08257524    -0.13400
S1613       S  0.54137762  0.41347400  0.09030000    -0.30300
H1614       H  0.52358997  0.42005243  0.07040968     0.11600
S1615       S  0.55568567  0.53143707  0.06645051    -0.27400
H1616       H  0.57582157  0.52476725  0.08603073     0.08800
H1617       H  0.59510822  0.51855598  0.13003200     0.27200
H1618       H  0.52374783  0.39078515  0.08305563     0.22000
H1619       H  0.57051995  0.55322307  0.07416135     0.27300
H1620       H  0.61654613  0.49272482  0.08040710     0.16200
C1621       C  0.75496957  0.37985123  0.12575345    -0.11100
C1622       C  0.74529801  0.37571506  0.13566866     0.15400
C1623       C  0.74870328  0.35468418  0.14173210     0.02300
C1624       C  0.76003753  0.33705374  0.13758667    -0.15500
C1625       C  0.76812924  0.34008739  0.12751342    -0.10300
C1626       C  0.76670705  0.36268873  0.12166067     0.09100
C1627       C  0.72800483  0.39051737  0.13888683     0.10100
S1628       S  0.73787580  0.34846268  0.15465056    -0.24600
H1629       H  0.76115042  0.31983703  0.14213532     0.20300
S1630       S  0.77898864  0.37042447  0.10886929    -0.30300
H1631       H  0.75239153  0.39591339  0.12105436     0.10700
C1632       C  0.74173091  0.42322640  0.13869171     0.03900
C1633       C  0.72290079  0.43583221  0.13998790    -0.12600
C1634       C  0.69069531  0.41637709  0.14156561    -0.08300
C1635       C  0.67719804  0.38364937  0.14203746     0.07300
C1636       C  0.69601426  0.37115925  0.14078554    -0.13400
S1637       S  0.78319203  0.44883956  0.13679944    -0.30300
H1638       H  0.73320185  0.46090485  0.13971968     0.11600
S1639       S  0.63582180  0.35640687  0.14334221    -0.27400
H1640       H  0.68530481  0.34599355  0.14072029     0.08800
H1641       H  0.80303844  0.36425117  0.10996347     0.27200
H1642       H  0.78382471  0.47711523  0.13715233     0.22000
H1643       H  0.62690256  0.37279760  0.13704908     0.27300
H1644       H  0.74239633  0.37816677  0.15629303     0.16200
C1645       C  0.79896413  0.91701845  0.17883845    -0.11100
C1646       C  0.82133894  0.90847336  0.17913543     0.15400
C1647       C  0.85300516  0.93138961  0.17755011     0.02300
C1648       C  0.86188161  0.96248637  0.17620286    -0.15500
C1649       C  0.83984206  0.97148377  0.17623073    -0.10300
C1650       C  0.80787120  0.94838445  0.17740215     0.09100
C1651       C  0.81240684  0.87689100  0.18255463     0.10100
S1652       S  0.88351981  0.92278536  0.17801067    -0.24600
H1653       H  0.88643631  0.97999497  0.17534402     0.20300
S1654       S  0.77869081  0.95887297  0.17804495    -0.30300
H1655       H  0.77479450  0.89931747  0.18021928     0.10700
C1656       C  0.81417915  0.87122516  0.19270339     0.03900
C1657       C  0.81436371  0.84452718  0.19556874    -0.12600
C1658       C  0.81299580  0.82348940  0.18845715    -0.08300
C1659       C  0.80677965  0.82710437  0.17843273     0.07300
C1660       C  0.80678242  0.85392245  0.17557596    -0.13400
S1661       S  0.81919888  0.89949973  0.20192459    -0.30300
H1662       H  0.81841511  0.84162150  0.20328532     0.11600
S1663       S  0.79980968  0.79907967  0.16890689    -0.27400
H1664       H  0.80441929  0.85787511  0.16779564     0.08800
H1665       H  0.75297707  0.92862751  0.17981977     0.27200
H1666       H  0.81587474  0.88112855  0.21027815     0.22000
H1667       H  0.78568452  0.77305345  0.17530455     0.27300
H1668       H  0.86704729  0.89474538  0.17265402     0.16200
C1669       C  0.73961714  0.62638958  0.18679577    -0.11100
C1670       C  0.74526626  0.61900270  0.17734922     0.15400
C1671       C  0.77350448  0.64001143  0.17250094     0.02300
C1672       C  0.79478637  0.66841509  0.17702039    -0.15500
C1673       C  0.78905290  0.67625283  0.18643726    -0.10300
C1674       C  0.76139572  0.65425577  0.19149422     0.09100
C1675       C  0.72073738  0.58997346  0.17253300     0.10100
S1676       S  0.78367121  0.63214770  0.16050800    -0.24600
H1677       H  0.81590404  0.68465847  0.17305621     0.20300
S1678       S  0.75241840  0.65963749  0.20396973    -0.30300
H1679       H  0.71804308  0.61017493  0.19056207     0.10700
C1680       C  0.71191469  0.56021073  0.17627947     0.03900
C1681       C  0.69004529  0.53345523  0.17102918    -0.12600
C1682       C  0.67722219  0.53600461  0.16207341    -0.08300
C1683       C  0.68474712  0.56578902  0.15867256     0.07300
C1684       C  0.70642571  0.59238926  0.16392189    -0.13400
S1685       S  0.73029280  0.55628714  0.18726829    -0.30300
H1686       H  0.68444974  0.51061210  0.17355941     0.11600
S1687       S  0.66766671  0.57142693  0.14767298    -0.27400
H1688       H  0.71263277  0.61525121  0.16118733     0.08800
H1689       H  0.78228644  0.66907436  0.20766742     0.27200
H1690       H  0.71111668  0.52359917  0.18811345     0.22000
H1691       H  0.63889639  0.54298942  0.14847907     0.27300
H1692       H  0.76753309  0.59947669  0.16158808     0.16200
C1693       C  0.42268512  0.10814059  0.07742693    -0.11100
C1694       C  0.42941550  0.08549926  0.07459561     0.15400
C1695       C  0.42686852  0.06353830  0.08167789     0.02300
C1696       C  0.42129256  0.06691422  0.09159780    -0.15500
C1697       C  0.41762703  0.09151022  0.09463129    -0.10300
C1698       C  0.41620624  0.11104468  0.08732655     0.09100
C1699       C  0.44437601  0.08910432  0.06483577     0.10100
S1700       S  0.43232325  0.03184546  0.07861588    -0.24600
H1701       H  0.42165918  0.05121398  0.09705189     0.20300
S1702       S  0.40702720  0.14025435  0.09045921    -0.30300
H1703       H  0.42438702  0.12479716  0.07195880     0.10700
C1704       C  0.43005529  0.08928771  0.05584619     0.03900
C1705       C  0.44735518  0.09767050  0.04703603    -0.12600
C1706       C  0.47873229  0.10591913  0.04701300    -0.08300
C1707       C  0.49217818  0.10351059  0.05594483     0.07300
C1708       C  0.47511527  0.09573324  0.06473372    -0.13400
S1709       S  0.38998477  0.07932869  0.05559705    -0.30300
H1710       H  0.43678774  0.09921875  0.04021615     0.11600
S1711       S  0.53090996  0.11012258  0.05669826    -0.27400
H1712       H  0.48621561  0.09556568  0.07162797     0.08800
H1713       H  0.40827214  0.15140457  0.08077546     0.27200
H1714       H  0.38891734  0.08564279  0.04547168     0.22000
H1715       H  0.52919013  0.09651730  0.04742578     0.27300
H1716       H  0.42374738  0.02988516  0.06857100     0.16200
C1717       C  0.50368047  0.32276905  0.13512180    -0.11100
C1718       C  0.49684233  0.30452787  0.14371358     0.15400
C1719       C  0.50926370  0.31946470  0.15290833     0.02300
C1720       C  0.53155237  0.35157823  0.15309570    -0.15500
C1721       C  0.54105647  0.36909364  0.14427949    -0.10300
C1722       C  0.52495025  0.35492841  0.13535486     0.09100
C1723       C  0.48274067  0.27046181  0.14239771     0.10100
S1724       S  0.49902372  0.29835322  0.16449246    -0.24600
H1725       H  0.54307957  0.36235771  0.16004005     0.20300
S1726       S  0.53158230  0.37626514  0.12390260    -0.30300
H1727       H  0.49389267  0.31163479  0.12804596     0.10700
C1728       C  0.45380002  0.25163409  0.13759260     0.03900
C1729       C  0.44481294  0.22130470  0.13461652    -0.12600
C1730       C  0.46412460  0.20936244  0.13639403    -0.08300
C1731       C  0.49264751  0.22801398  0.14153115     0.07300
C1732       C  0.50140392  0.25808491  0.14453661    -0.13400
S1733       S  0.42834766  0.26622002  0.13529193    -0.30300
H1734       H  0.42271513  0.20685578  0.13084806     0.11600
S1735       S  0.52027109  0.21612753  0.14375355    -0.27400
H1736       H  0.52400260  0.27274488  0.14802227     0.08800
H1737       H  0.53950090  0.40462296  0.12848868     0.27200
H1738       H  0.40449670  0.23940943  0.13047786     0.22000
H1739       H  0.51752559  0.20387459  0.13417229     0.27300
H1740       H  0.46996330  0.27335966  0.16123894     0.16200
C1741       C  0.63009443  0.18237127  0.11194125    -0.11100
C1742       C  0.61995688  0.16006358  0.11955440     0.15400
C1743       C  0.64195872  0.15631929  0.12487723     0.02300
C1744       C  0.67375228  0.17647585  0.12294523    -0.15500
C1745       C  0.68402654  0.19973922  0.11560480    -0.10300
C1746       C  0.66180975  0.20242713  0.10997670     0.09100
C1747       C  0.58669550  0.14366234  0.12231225     0.10100
S1748       S  0.63097260  0.12689022  0.13434447    -0.24600
H1749       H  0.69064847  0.17417034  0.12726441     0.20300
S1750       S  0.67235588  0.23275732  0.10088161    -0.30300
H1751       H  0.61321298  0.18539411  0.10788522     0.10700
C1752       C  0.57694342  0.15189027  0.13095542     0.03900
C1753       C  0.54506847  0.13964716  0.13245491    -0.12600
C1754       C  0.52307498  0.12043245  0.12530201    -0.08300
C1755       C  0.53271163  0.11095128  0.11692883     0.07300
C1756       C  0.56442257  0.12264051  0.11552537    -0.13400
S1757       S  0.60511684  0.18069982  0.13948125    -0.30300
H1758       H  0.53749825  0.14730478  0.13874486     0.11600
S1759       S  0.50577320  0.08535593  0.10753963    -0.27400
H1760       H  0.57194366  0.11641509  0.10887940     0.08800
H1761       H  0.69607419  0.25669457  0.10671332     0.27200
H1762       H  0.58356684  0.18096495  0.14600494     0.22000
H1763       H  0.47957789  0.07023546  0.11377498     0.27300
H1764       H  0.60087637  0.10594286  0.13063625     0.16200
C1765       C  0.06185681  0.91812579  0.19756201    -0.11100
C1766       C  0.04714264  0.90633173  0.18837889     0.15400
C1767       C  0.06240849  0.92230830  0.17961387     0.02300
C1768       C  0.09017635  0.95132670  0.18026073    -0.15500
C1769       C  0.10352487  0.96480735  0.18950580    -0.10300
C1770       C  0.09022001  0.94676954  0.19820840     0.09100
C1771       C  0.01400873  0.88071581  0.18826047     0.10100
S1772       S  0.04652712  0.90779199  0.16741824    -0.24600
H1773       H  0.10040254  0.96416017  0.17345472     0.20300
S1774       S  0.10745514  0.95912999  0.21035326    -0.30300
H1775       H  0.05047774  0.90559460  0.20431396     0.10700
C1776       C  0.00417272  0.85014259  0.19139251     0.03900
C1777       C  0.97212090  0.82754317  0.19174302    -0.12600
C1778       C  0.94982852  0.83512069  0.18912199    -0.08300
C1779       C  0.95995779  0.86550031  0.18559499     0.07300
C1780       C  0.99179370  0.88792574  0.18529957    -0.13400
S1781       S  0.03235679  0.84006872  0.19502171    -0.30300
H1782       H  0.96435455  0.80431623  0.19449253     0.11600
S1783       S  0.93355989  0.87717358  0.18132114    -0.27400
H1784       H  0.99937502  0.91141247  0.18283077     0.08800
H1785       H  0.13814952  0.97146949  0.20697512     0.27200
H1786       H  0.01077059  0.80842241  0.19715765     0.22000
H1787       H  0.91142638  0.84783245  0.17733469     0.27300
H1788       H  0.02945169  0.87600648  0.17009081     0.16200
C1789       C  0.04838215  0.06801337  0.17189429    -0.11100
C1790       C  0.05591246  0.09910560  0.17146987     0.15400
C1791       C  0.08742242  0.12355380  0.17244702     0.02300
C1792       C  0.11028751  0.11633746  0.17442454    -0.15500
C1793       C  0.10236116  0.08517913  0.17533951    -0.10300
C1794       C  0.07123098  0.06081536  0.17359705     0.09100
C1795       C  0.02975329  0.10457352  0.17107244     0.10100
S1796       S  0.09971198  0.16423806  0.17156904    -0.24600
H1797       H  0.13414467  0.13517110  0.17570942     0.20300
S1798       S  0.05906824  0.02004481  0.17354114    -0.30300
H1799       H  0.02428778  0.04909818  0.17112273     0.10700
C1800       C  0.00779133  0.09255344  0.16328284     0.03900
C1801       C  0.97976779  0.09179059  0.16427253    -0.12600
C1802       C  0.97307832  0.10281181  0.17290673    -0.08300
C1803       C  0.99665256  0.11795644  0.18024371     0.07300
C1804       C  0.02451516  0.11822268  0.17928779    -0.13400
S1805       S  0.01498453  0.07716401  0.15221107    -0.30300
H1806       H  0.96233007  0.08101211  0.15847874     0.11600
S1807       S  0.99168188  0.13645552  0.19095172    -0.27400
H1808       H  0.04170477  0.12771147  0.18519245     0.08800
H1809       H  0.08746754  0.02500128  0.16992187     0.27200
H1810       H  0.98707895  0.06894750  0.14723824     0.22000
H1811       H  0.02185367  0.14914771  0.19492167     0.27300
H1812       H  0.07525869  0.15972553  0.16531061     0.16200
C1813       C  0.33101462  0.05160758  0.15998841    -0.11100
C1814       C  0.30495631  0.05128433  0.15616213     0.15400
C1815       C  0.30119343  0.05191537  0.14582252     0.02300
C1816       C  0.32516937  0.05643743  0.13958382    -0.15500
C1817       C  0.35303242  0.06043267  0.14343057    -0.10300
C1818       C  0.35487873  0.05557238  0.15371947     0.09100
C1819       C  0.28471357  0.05530033  0.16302023     0.10100
S1820       S  0.26764192  0.05000516  0.14020914    -0.24600
H1821       H  0.32284407  0.05908563  0.13169694     0.20300
S1822       S  0.38789082  0.05688784  0.15946769    -0.30300
H1823       H  0.33355760  0.05049034  0.16794629     0.10700
C1824       C  0.26175862  0.03040563  0.16871686     0.03900
C1825       C  0.24194098  0.03531443  0.17463942    -0.12600
C1826       C  0.24456407  0.06456124  0.17485091    -0.08300
C1827       C  0.26849072  0.08974777  0.16941662     0.07300
C1828       C  0.28817335  0.08479422  0.16352810    -0.13400
S1829       S  0.25657481  0.99211331  0.16794633    -0.30300
H1830       H  0.22344565  0.01597986  0.17877056     0.11600
S1831       S  0.27541514  0.12873328  0.16979107    -0.27400
H1832       H  0.30623474  0.10402541  0.15922734     0.08800
H1833       H  0.38953045  0.03764613  0.15225528     0.27200
H1834       H  0.23080776  0.97691528  0.17434943     0.22000
H1835       H  0.26622546  0.12701277  0.17972941     0.27300
H1836       H  0.24659290  0.03250648  0.14782481     0.16200
C1837       C  0.79417648  0.04072824  0.21850219    -0.11100
C1838       C  0.81319013  0.03966471  0.22591927     0.15400
C1839       C  0.84511723  0.05211732  0.22401477     0.02300
C1840       C  0.85700721  0.06410935  0.21461887    -0.15500
C1841       C  0.83773608  0.06365538  0.20697117    -0.10300
C1842       C  0.80611740  0.05276998  0.20907358     0.09100
C1843       C  0.79897108  0.02362240  0.23535152     0.10100
S1844       S  0.87143983  0.05105939  0.23293654    -0.24600
H1845       H  0.88118657  0.07209328  0.21311627     0.20300
S1846       S  0.77975716  0.05321187  0.20007233    -0.30300
H1847       H  0.76973668  0.03149415  0.22001074     0.10700
C1848       C  0.79704199  0.03990598  0.24348895     0.03900
C1849       C  0.78819446  0.02508744  0.25276032    -0.12600
C1850       C  0.78148928  0.99434412  0.25406651    -0.08300
C1851       C  0.78086247  0.97730975  0.24564538     0.07300
C1852       C  0.78992723  0.99224248  0.23641746    -0.13400
S1853       S  0.80858362  0.08038008  0.24223386    -0.30300
H1854       H  0.78862839  0.03830996  0.25914189     0.11600
S1855       S  0.76926000  0.93679238  0.24616750    -0.27400
H1856       H  0.79087222  0.97960964  0.23006787     0.08800
H1857       H  0.80263407  0.08089523  0.19538196     0.27200
H1858       H  0.80444254  0.08522802  0.25223487     0.22000
H1859       H  0.74663236  0.92874007  0.25355967     0.27300
H1860       H  0.85631027  0.05178372  0.24154550     0.16200
C1861       C  0.53181452  0.72221123  0.42198163    -0.11100
C1862       C  0.55304454  0.75448543  0.42121955     0.15400
C1863       C  0.56558670  0.77238763  0.42992200     0.02300
C1864       C  0.55508435  0.75802628  0.43917515    -0.15500
C1865       C  0.53228920  0.72603834  0.43995420    -0.10300
C1866       C  0.52136039  0.70769863  0.43123543     0.09100
C1867       C  0.55729039  0.76907409  0.41135079     0.10100
S1868       S  0.59399681  0.81379803  0.42967773    -0.24600
H1869       H  0.56384104  0.77228973  0.44580011     0.20300
S1870       S  0.49400334  0.66593145  0.43171648    -0.30300
H1871       H  0.52230553  0.70866290  0.41525460     0.10700
C1872       C  0.57055119  0.76210818  0.40338471     0.03900
C1873       C  0.56857633  0.77182335  0.39378440    -0.12600
C1874       C  0.55357348  0.78840491  0.39198209    -0.08300
C1875       C  0.54275416  0.79759079  0.40018872     0.07300
C1876       C  0.54430089  0.78740417  0.40970242    -0.13400
S1877       S  0.58910126  0.74005621  0.40541242    -0.30300
H1878       H  0.57737239  0.76503359  0.38760938     0.11600
S1879       S  0.52598966  0.82151134  0.39913763    -0.27400
H1880       H  0.53434929  0.79299971  0.41586517     0.08800
H1881       H  0.49153977  0.66047828  0.42142703     0.27200
H1882       H  0.59980678  0.74221528  0.39564940     0.22000
H1883       H  0.54835580  0.84236403  0.39229536     0.27300
H1884       H  0.60662291  0.81401278  0.42037676     0.16200
C1885       C  0.65177023  0.87156319  0.33382268    -0.11100
C1886       C  0.64533419  0.88869098  0.32701461     0.15400
C1887       C  0.61605924  0.88604721  0.32725252     0.02300
C1888       C  0.59355030  0.86557145  0.33398893    -0.15500
C1889       C  0.59992363  0.84846739  0.34080700    -0.10300
C1890       C  0.62947843  0.85162688  0.34074515     0.09100
C1891       C  0.66859870  0.90719366  0.31927865     0.10100
S1892       S  0.60626458  0.90866916  0.31932013    -0.24600
H1893       H  0.57109071  0.86363814  0.33409659     0.20300
S1894       S  0.63965341  0.82984478  0.34892331    -0.30300
H1895       H  0.67406603  0.87317548  0.33357173     0.10700
C1896       C  0.69837996  0.93278606  0.32169642     0.03900
C1897       C  0.72022264  0.94825564  0.31413466    -0.12600
C1898       C  0.71277347  0.93899255  0.30416625    -0.08300
C1899       C  0.68204319  0.91491560  0.30172180     0.07300
C1900       C  0.66064498  0.89878249  0.30930398    -0.13400
S1901       S  0.70868621  0.94577014  0.33438866    -0.30300
H1902       H  0.74362261  0.96683195  0.31607139     0.11600
S1903       S  0.66835299  0.90418825  0.28913246    -0.27400
H1904       H  0.63746813  0.87956931  0.30741509     0.08800
H1905       H  0.60999578  0.80226895  0.34871155     0.27200
H1906       H  0.73709175  0.97353878  0.33228804     0.22000
H1907       H  0.68603405  0.93491190  0.28543005     0.27300
H1908       H  0.63675387  0.93489240  0.31867051     0.16200
C1909       C  0.94439039  0.78073429  0.26115333    -0.11100
C1910       C  0.94173286  0.79851116  0.25361502     0.15400
C1911       C  0.95897488  0.83137732  0.25433402     0.02300
C1912       C  0.97663501  0.84566196  0.26284123    -0.15500
C1913       C  0.97826392  0.82804580  0.27068243    -0.10300
C1914       C  0.96294953  0.79515209  0.26957703     0.09100
C1915       C  0.91972644  0.78277752  0.24528698     0.10100
S1916       S  0.95846557  0.85639813  0.24478731    -0.24600
H1917       H  0.98845191  0.87086182  0.26343403     0.20300
S1918       S  0.96640150  0.77032956  0.27848953    -0.30300
H1919       H  0.93175544  0.75550075  0.26049796     0.10700
C1920       C  0.92746641  0.77072680  0.23715822     0.03900
C1921       C  0.90922424  0.76249584  0.22850724    -0.12600
C1922       C  0.88331569  0.76600431  0.22784128    -0.08300
C1923       C  0.87378023  0.77481126  0.23642751     0.07300
C1924       C  0.89231710  0.78352378  0.24498371    -0.13400
S1925       S  0.96217795  0.76868262  0.23744885    -0.30300
H1926       H  0.91654033  0.75540490  0.22202059     0.11600
S1927       S  0.83865575  0.77591710  0.23693571    -0.27400
H1928       H  0.88596909  0.79207587  0.25135310     0.08800
H1929       H  0.99829321  0.79158912  0.28035999     0.27200
H1930       H  0.95686005  0.75289322  0.22837212     0.22000
H1931       H  0.82133939  0.74976830  0.23074701     0.27300
H1932       H  0.95522367  0.83717618  0.23674899     0.16200
C1933       C  0.90617355  0.90317985  0.31052523    -0.11100
C1934       C  0.87852310  0.87805608  0.30656417     0.15400
C1935       C  0.87708358  0.84987730  0.30437282     0.02300
C1936       C  0.90415648  0.84866417  0.30513255    -0.15500
C1937       C  0.93260283  0.87503751  0.30806388    -0.10300
C1938       C  0.93303933  0.90181853  0.31142103     0.09100
C1939       C  0.85451474  0.88446408  0.30302629     0.10100
S1940       S  0.84204385  0.81557799  0.29990609    -0.24600
H1941       H  0.90350398  0.82784422  0.30266570     0.20300
S1942       S  0.96759198  0.93564789  0.31638414    -0.30300
H1943       H  0.90747028  0.92482284  0.31231974     0.10700
C1944       C  0.84051087  0.89557368  0.30943454     0.03900
C1945       C  0.82410850  0.90856925  0.30539277    -0.12600
C1946       C  0.82095591  0.91029038  0.29505540    -0.08300
C1947       C  0.83236344  0.89616181  0.28872831     0.07300
C1948       C  0.84943549  0.88400660  0.29276406    -0.13400
S1949       S  0.84432215  0.89404677  0.32273253    -0.30300
H1950       H  0.81472908  0.91856495  0.31031284     0.11600
S1951       S  0.82862224  0.89541398  0.27542950    -0.27400
H1952       H  0.86018344  0.87548727  0.28780052     0.08800
H1953       H  0.98108912  0.91912427  0.32001792     0.27200
H1954       H  0.82526037  0.90567950  0.32527379     0.22000
H1955       H  0.79591660  0.88040537  0.27571969     0.27300
H1956       H  0.82123725  0.82299392  0.30410179     0.16200
C1957       C  0.30719242  0.87289011  0.42477820    -0.11100
C1958       C  0.27919742  0.87142743  0.42264923     0.15400
C1959       C  0.26176105  0.87319033  0.43048726     0.02300
C1960       C  0.27155891  0.87423673  0.44028760    -0.15500
C1961       C  0.29875888  0.87402636  0.44248141    -0.10300
C1962       C  0.31746344  0.87476338  0.43455069     0.09100
C1963       C  0.26726586  0.86442882  0.41233766     0.10100
S1964       S  0.22636786  0.87320634  0.42846915    -0.24600
H1965       H  0.25713341  0.87406833  0.44624973     0.20300
S1966       S  0.35452999  0.87797600  0.43631265    -0.30300
H1967       H  0.32081799  0.87183628  0.41876761     0.10700
C1968       C  0.28317519  0.88533290  0.40448898     0.03900
C1969       C  0.27326126  0.87578442  0.39470142    -0.12600
C1970       C  0.24775188  0.84565493  0.39256545    -0.08300
C1971       C  0.23061559  0.82561281  0.40055621     0.07300
C1972       C  0.24082096  0.83506123  0.41029775    -0.13400
S1973       S  0.31638056  0.92396593  0.40692978    -0.30300
H1974       H  0.28637780  0.89144565  0.38866912     0.11600
S1975       S  0.19573696  0.78773326  0.39892411    -0.27400
H1976       H  0.22838552  0.81909305  0.41635630     0.08800
H1977       H  0.36385286  0.89924927  0.44423539     0.27200
H1978       H  0.32318663  0.93372249  0.39697998     0.22000
H1979       H  0.18383945  0.79755807  0.39122183     0.27300
H1980       H  0.23444830  0.88713262  0.41901516     0.16200
C1981       C  0.41259783  0.81784562  0.35364461    -0.11100
C1982       C  0.42158705  0.84747488  0.35725889     0.15400
C1983       C  0.45185790  0.86684379  0.36113858     0.02300
C1984       C  0.47214572  0.85572686  0.36162029    -0.15500
C1985       C  0.46302106  0.82564170  0.35820840    -0.10300
C1986       C  0.43275464  0.80660232  0.35403551     0.09100
C1987       C  0.39698282  0.85492810  0.35810879     0.10100
S1988       S  0.46568762  0.90568436  0.36567822    -0.24600
H1989       H  0.49523836  0.87074004  0.36473304     0.20300
S1990       S  0.41814407  0.76718817  0.34972016    -0.30300
H1991       H  0.38901581  0.80293207  0.35088671     0.10700
C1992       C  0.38272255  0.85866564  0.34963720     0.03900
C1993       C  0.35401332  0.85670545  0.35059683    -0.12600
C1994       C  0.33959344  0.85118043  0.35989714    -0.08300
C1995       C  0.35597872  0.85140964  0.36848839     0.07300
C1996       C  0.38420283  0.85275578  0.36748792    -0.13400
S1997       S  0.40036829  0.86424708  0.33758351    -0.30300
H1998       H  0.34176974  0.85714184  0.34402894     0.11600
S1999       S  0.34160000  0.84897070  0.38090550    -0.27400
H2000       H  0.39548088  0.85047466  0.37402926     0.08800
H2001       H  0.39025070  0.76183661  0.34541863     0.27200
H2002       H  0.37916412  0.86939497  0.33239287     0.22000
H2003       H  0.32573606  0.86442126  0.37867629     0.27300
H2004       H  0.44615515  0.91120298  0.35967148     0.16200
C2005       C  0.16309366  0.84761938  0.32960296    -0.11100
C2006       C  0.14135240  0.85182254  0.33467901     0.15400
C2007       C  0.14026500  0.85012997  0.34513842     0.02300
C2008       C  0.16038084  0.84353137  0.35025190    -0.15500
C2009       C  0.18218217  0.83934236  0.34517676    -0.10300
C2010       C  0.18339413  0.84132335  0.33470588     0.09100
C2011       C  0.11896575  0.85589432  0.32875207     0.10100
S2012       S  0.11409270  0.85649177  0.35237638    -0.24600
H2013       H  0.15934612  0.84214995  0.35828293     0.20300
S2014       S  0.20876321  0.83410668  0.32736602    -0.30300
H2015       H  0.16360614  0.84835909  0.32156086     0.10700
C2016       C  0.12914072  0.88219895  0.32259648     0.03900
C2017       C  0.10759167  0.88381208  0.31642863    -0.12600
C2018       C  0.07594575  0.85997319  0.31643502    -0.08300
C2019       C  0.06570111  0.83386541  0.32273171     0.07300
C2020       C  0.08731317  0.83211696  0.32882036    -0.13400
S2021       S  0.16930747  0.91425422  0.32288384    -0.30300
H2022       H  0.11525287  0.90411568  0.31174401     0.11600
S2023       S  0.02583039  0.80151726  0.32302387    -0.27400
H2024       H  0.07956815  0.81172773  0.33348089     0.08800
H2025       H  0.20461140  0.80891752  0.33319332     0.27200
H2026       H  0.16640387  0.93280329  0.31563993     0.22000
H2027       H  0.02014495  0.80251698  0.31283697     0.27300
H2028       H  0.11239724  0.87692945  0.34561746     0.16200
C2029       C  0.17730552  0.46895825  0.39746197    -0.11100
C2030       C  0.14506280  0.45610712  0.39807544     0.15400
C2031       C  0.12691196  0.44594018  0.38934289     0.02300
C2032       C  0.14163609  0.45120879  0.38014179    -0.15500
C2033       C  0.17428126  0.46608684  0.37941043    -0.10300
C2034       C  0.19221366  0.47402520  0.38828013     0.09100
C2035       C  0.13252580  0.45930086  0.40761138     0.10100
S2036       S  0.08503129  0.42714887  0.38947937    -0.24600
H2037       H  0.12743786  0.44436103  0.37347460     0.20300
S2038       S  0.23425591  0.49292231  0.38818044    -0.30300
H2039       H  0.19105717  0.47686526  0.40421478     0.10700
C2040       C  0.13360240  0.44444357  0.41634751     0.03900
C2041       C  0.12808025  0.45373962  0.42552391    -0.12600
C2042       C  0.12121946  0.47746674  0.42612804    -0.08300
C2043       C  0.11687676  0.48975430  0.41721335     0.07300
C2044       C  0.12317162  0.48101773  0.40812004    -0.13400
S2045       S  0.14288691  0.41435024  0.41581570    -0.30300
H2046       H  0.13080947  0.44363445  0.43226996     0.11600
S2047       S  0.10385841  0.51695274  0.41684591    -0.27400
H2048       H  0.12179401  0.49208476  0.40137901     0.08800
H2049       H  0.23901998  0.49530817  0.39851427     0.27200
H2050       H  0.13731733  0.40579509  0.42589052     0.22000
H2051       H  0.08220704  0.50226657  0.42458057     0.27300
H2052       H  0.08101029  0.41500283  0.39915088     0.16200
C2053       C  0.36407954  0.60985673  0.34373182    -0.11100
C2054       C  0.38361133  0.60456026  0.34977267     0.15400
C2055       C  0.37097826  0.57556136  0.35471095     0.02300
C2056       C  0.33890555  0.55369245  0.35411447    -0.15500
C2057       C  0.31915293  0.55949413  0.34836048    -0.10300
C2058       C  0.33220137  0.58758200  0.34281804     0.09100
C2059       C  0.41513534  0.63171306  0.35209210     0.10100
S2060       S  0.39445224  0.56536804  0.36202061    -0.24600
H2061       H  0.32924356  0.53202682  0.35824849     0.20300
S2062       S  0.30843365  0.59719367  0.33534243    -0.30300
H2063       H  0.37354009  0.63241064  0.34017595     0.10700
C2064       C  0.43648329  0.65007152  0.34457808     0.03900
C2065       C  0.46241577  0.67952607  0.34698505    -0.12600
C2066       C  0.46745780  0.69076403  0.35676135    -0.08300
C2067       C  0.44813530  0.67070678  0.36440798     0.07300
C2068       C  0.42187233  0.64185998  0.36197259    -0.13400
S2069       S  0.43010442  0.63656010  0.33188519    -0.30300
H2070       H  0.47756396  0.69463663  0.34114225     0.11600
S2071       S  0.45521975  0.68084240  0.37738851    -0.27400
H2072       H  0.40581861  0.62780328  0.36781054     0.08800
H2073       H  0.33311130  0.62269188  0.33029018     0.27200
H2074       H  0.45683706  0.66275591  0.32787641     0.22000
H2075       H  0.48789604  0.69927110  0.37651260     0.27300
H2076       H  0.42245918  0.58499661  0.35692540     0.16200
C2077       C  0.18411719  0.66429070  0.35657288    -0.11100
C2078       C  0.19952641  0.66134065  0.34843174     0.15400
C2079       C  0.21621885  0.68687756  0.34192879     0.02300
C2080       C  0.21986507  0.71565680  0.34428260    -0.15500
C2081       C  0.20652795  0.71948703  0.35289172    -0.10300
C2082       C  0.18691129  0.69282171  0.35877377     0.09100
C2083       C  0.20151393  0.63311074  0.34778467     0.10100
S2084       S  0.23500042  0.68468264  0.33086823    -0.24600
H2085       H  0.23436138  0.73550170  0.33952541     0.20300
S2086       S  0.16519324  0.69345823  0.36924494    -0.30300
H2087       H  0.17073013  0.64448101  0.36146634     0.10700
C2088       C  0.22940500  0.63462655  0.35031354     0.03900
C2089       C  0.23035234  0.60739281  0.35015177    -0.12600
C2090       C  0.20383837  0.57825565  0.34775588    -0.08300
C2091       C  0.17575485  0.57671155  0.34522216     0.07300
C2092       C  0.17496815  0.60427455  0.34525778    -0.13400
S2093       S  0.26348068  0.67098694  0.35427833    -0.30300
H2094       H  0.25193364  0.60879363  0.35207792     0.11600
S2095       S  0.14047446  0.53990293  0.34247303    -0.27400
H2096       H  0.15357537  0.60343996  0.34346635     0.08800
H2097       H  0.15604669  0.71234643  0.36446520     0.27200
H2098       H  0.28294126  0.65922276  0.35609986     0.22000
H2099       H  0.12078614  0.55169177  0.34125690     0.27300
H2100       H  0.21507136  0.65233208  0.32942021     0.16200
C2101       C  0.21036683  0.20487263  0.24279104    -0.11100
C2102       C  0.18890483  0.19018073  0.23503812     0.15400
C2103       C  0.16147670  0.19132596  0.23482968     0.02300
C2104       C  0.15527260  0.20526853  0.24270957    -0.15500
C2105       C  0.17541580  0.21765282  0.25093961    -0.10300
C2106       C  0.20425485  0.21904721  0.25063210     0.09100
C2107       C  0.19418099  0.17126296  0.22787653     0.10100
S2108       S  0.13235136  0.17409252  0.22510817    -0.24600
H2109       H  0.13331217  0.20436676  0.24270389     0.20300
S2110       S  0.23404132  0.23791485  0.26002590    -0.30300
H2111       H  0.23174107  0.20461469  0.24284992     0.10700
C2112       C  0.20459430  0.18165659  0.21815675     0.03900
C2113       C  0.20459102  0.16081310  0.21126265    -0.12600
C2114       C  0.19444544  0.12975197  0.21391407    -0.08300
C2115       C  0.18689031  0.12055042  0.22395242     0.07300
C2116       C  0.18644677  0.14122407  0.23075972    -0.13400
S2117       S  0.21631755  0.22087187  0.21443638    -0.30300
H2118       H  0.21086263  0.16829067  0.20364149     0.11600
S2119       S  0.17747882  0.08291080  0.22858150    -0.27400
H2120       H  0.17922591  0.13356063  0.23833092     0.08800
H2121       H  0.22910059  0.26270796  0.26142076     0.27200
H2122       H  0.22411512  0.21865537  0.20459480     0.22000
H2123       H  0.19911226  0.08112922  0.22250443     0.27300
H2124       H  0.14055809  0.15378180  0.22105041     0.16200
C2125       C  0.98684779  0.16317598  0.29081249    -0.11100
C2126       C  0.96909347  0.14582449  0.28261568     0.15400
C2127       C  0.98328459  0.15169606  0.27320935     0.02300
C2128       C  0.01549030  0.17245824  0.27239373    -0.15500
C2129       C  0.03397703  0.18756403  0.28078398    -0.10300
C2130       C  0.01900782  0.18424983  0.28998887     0.09100
C2131       C  0.93821494  0.11757830  0.28444000     0.10100
S2132       S  0.96223318  0.13075907  0.26220256    -0.24600
H2133       H  0.02640621  0.17498197  0.26526078     0.20300
S2134       S  0.03953964  0.20510673  0.30105287    -0.30300
H2135       H  0.97588652  0.15891497  0.29802384     0.10700
C2136       C  0.93589732  0.08895803  0.28645250     0.03900
C2137       C  0.90648661  0.06185199  0.28742042    -0.12600
C2138       C  0.87916381  0.06263426  0.28645801    -0.08300
C2139       C  0.88149261  0.09160664  0.28478494     0.07300
C2140       C  0.91115862  0.11891597  0.28389578    -0.13400
S2141       S  0.97051513  0.08681502  0.28752949    -0.30300
H2142       H  0.90474030  0.03972762  0.28873163     0.11600
S2143       S  0.84713505  0.09384595  0.28302008    -0.27400
H2144       H  0.91338864  0.14117555  0.28241109     0.08800
H2145       H  0.06108143  0.23263285  0.29598723     0.27200
H2146       H  0.95541338  0.05533938  0.29051726     0.22000
H2147       H  0.86273172  0.12571458  0.28047152     0.27300
H2148       H  0.93315962  0.12555842  0.26510537     0.16200
C2149       C  0.10760005  0.03297456  0.30335421    -0.11100
C2150       C  0.10822979  0.04587957  0.29406716     0.15400
C2151       C  0.09653469  0.02632117  0.28567200     0.02300
C2152       C  0.08241348  0.99408028  0.28684030    -0.15500
C2153       C  0.07956228  0.98066344  0.29623773    -0.10300
C2154       C  0.09349574  0.00053786  0.30455342     0.09100
C2155       C  0.11538446  0.07830745  0.29359302     0.10100
S2156       S  0.09611521  0.04079328  0.27343689    -0.24600
H2157       H  0.07209992  0.97926252  0.28038927     0.20300
S2158       S  0.09322857  0.98514495  0.31672797    -0.30300
H2159       H  0.11669823  0.04826809  0.30973862     0.10700
C2160       C  0.09120462  0.08426187  0.29463759     0.03900
C2161       C  0.09716436  0.11421182  0.29268251    -0.12600
C2162       C  0.12682066  0.13840914  0.28969655    -0.08300
C2163       C  0.15149062  0.13278818  0.28914764     0.07300
C2164       C  0.14559347  0.10283403  0.29126057    -0.13400
S2165       S  0.05237986  0.05332491  0.29809585    -0.30300
H2166       H  0.07838830  0.11864837  0.29320808     0.11600
S2167       S  0.19003395  0.16182537  0.28495437    -0.27400
H2168       H  0.16412184  0.09811243  0.29046423     0.08800
H2169       H  0.10991617  0.01397775  0.32169935     0.27200
H2170       H  0.03825352  0.07109676  0.29755893     0.22000
H2171       H  0.17963669  0.17258682  0.27708208     0.27300
H2172       H  0.12462450  0.06928607  0.27443478     0.16200
C2173       C  0.17581525  0.37338199  0.32408111    -0.11100
C2174       C  0.19213849  0.38356762  0.31508602     0.15400
C2175       C  0.21045151  0.41586572  0.31303972     0.02300
C2176       C  0.21196480  0.43719770  0.31998552    -0.15500
C2177       C  0.19636702  0.42709854  0.32910247    -0.10300
C2178       C  0.17790778  0.39479379  0.33115155     0.09100
C2179       C  0.18791490  0.35974560  0.30778308     0.10100
S2180       S  0.23301664  0.43132431  0.30184331    -0.24600
H2181       H  0.22643776  0.46199286  0.31841654     0.20300
S2182       S  0.15574400  0.38062995  0.34249939    -0.30300
H2183       H  0.16121935  0.34852740  0.32549445     0.10700
C2184       C  0.19819096  0.33908482  0.30977751     0.03900
C2185       C  0.19035133  0.31449444  0.30319880    -0.12600
C2186       C  0.17264244  0.31021138  0.29458362    -0.08300
C2187       C  0.16386453  0.33214655  0.29236710     0.07300
C2188       C  0.17167294  0.35660331  0.29896583    -0.13400
S2189       S  0.22130254  0.34402917  0.32069981    -0.30300
H2190       H  0.19752960  0.29811916  0.30489400     0.11600
S2191       S  0.14088804  0.32928177  0.28167823    -0.27400
H2192       H  0.16387617  0.37260224  0.29742396     0.08800
H2193       H  0.14283835  0.34858540  0.34070046     0.27200
H2194       H  0.22855003  0.32140250  0.31825035     0.22000
H2195       H  0.11701974  0.29834441  0.28379575     0.27300
H2196       H  0.23877775  0.40708565  0.30051643     0.16200
loop_ 
_geom_bond_atom_site_label_1 
_geom_bond_atom_site_label_2 
_geom_bond_distance 
_geom_bond_site_symmetry_2 
_ccdc_geom_bond_type 
O1            C4   1.268       .  A
O1           Cd6   2.478       .  S
C2           O11   1.264       .  A
C2            O7   1.269       .  A
C2         C2129   1.484       .  S
O3            C9   1.268       .  A
O3           Cd6   2.484       .  S
C4           O12   1.263       .  A
C4         C2105   1.488       .  S
C5           O10   1.265       .  A
C5            O8   1.265       .  A
C5         C2186   1.483       .  S
Cd6          O13   2.412       .  S
Cd6          O12   2.449       .  S
Cd6          O11   2.439       .  S
Cd6           O7   2.482       .  S
Cd6          O10   2.445       .  S
Cd6           O8   2.465       .  S
C9           O13   1.264       .  A
C9         C2162   1.473       .  S
O14          C17   1.267       .  A
O14         Cd19   2.475       .  S
C15          O24   1.268       .  A
C15          O20   1.265       .  A
C15        C2033   1.489       .  S
O16          C22   1.269       .  A
O16         Cd19   2.506       .  S
C17          O25   1.262       .  A
C17        C2057   1.480       .  S
C18          O23   1.265       .  A
C18          O21   1.264       .  A
C18        C2177   1.475       .  S
Cd19         O26   2.405       .  S
Cd19         O25   2.437       .  S
Cd19         O24   2.467       .  S
Cd19         O20   2.450       .  S
Cd19         O23   2.464       .  S
Cd19         O21   2.458       .  S
C22          O26   1.263       .  A
C22        C2090   1.484       .  S
O27          C30   1.265       .  A
O27         Cd32   2.461       .  S
C28          O37   1.267       .  A
C28          O33   1.266       .  A
C28        C1970   1.485       .  S
O29          C35   1.269       .  A
O29         Cd32   2.498       .  S
C30          O38   1.265       .  A
C30        C2081   1.486       .  S
C31          O36   1.267       .  A
C31          O34   1.265       .  A
C31        C2009   1.474       .  S
Cd32         O39   2.403       .  S
Cd32         O38   2.453       .  S
Cd32         O37   2.450       .  S
Cd32         O33   2.455       .  S
Cd32         O36   2.461       .  S
Cd32         O34   2.444       .  S
C35          O39   1.262       .  A
C35        C1994   1.475       .  S
O40          C43   1.265   1_455  A
O40         Cd45   2.456       .  S
C41          O50   1.266       .  A
C41          O46   1.269       .  A
C41        C2153   1.483       .  S
O42          C48   1.266       .  A
O42         Cd45   2.493   1_655  S
C43          O51   1.264       .  A
C43        C1913   1.487       .  S
C44          O49   1.265       .  A
C44          O47   1.263       .  A
C44        C2018   1.471       .  S
Cd45         O52   2.425   1_455  S
Cd45         O51   2.487   1_455  S
Cd45         O50   2.446       .  S
Cd45         O46   2.456       .  S
Cd45         O49   2.467       .  S
Cd45         O47   2.439       .  S
C48          O52   1.262       .  A
C48        C1937   1.473       .  S
O53          C56   1.268       .  A
O53         Cd58   2.489       .  S
C54          O63   1.267       .  A
C54          O59   1.265       .  A
C54        C1874   1.485       .  S
O55          C61   1.267       .  A
O55         Cd58   2.494       .  S
C56          O64   1.261       .  A
C56        C1985   1.487       .  S
C57          O62   1.263       .  A
C57          O60   1.264       .  A
C57        C1889   1.471       .  S
Cd58         O65   2.416       .  S
Cd58         O64   2.422       .  S
Cd58         O63   2.456       .  S
Cd58         O59   2.436       .  S
Cd58         O62   2.439       .  S
Cd58         O60   2.469       .  S
C61          O65   1.261       .  A
C61        C2066   1.476       .  S
O66          C69   1.267       .  A
O66         Cd71   2.466       .  S
C67          O76   1.265       .  A
C67          O72   1.268       .  A
C67        C1946   1.485       .  S
O68          C74   1.266       .  A
O68         Cd71   2.476   1_545  S
C69          O77   1.265       .  A
C69        C1850   1.482       .  S
C70          O75   1.266       .  A
C70          O73   1.266       .  A
C70        C1898   1.479       .  S
Cd71         O78   2.420   1_565  S
Cd71         O77   2.444       .  S
Cd71         O76   2.431       .  S
Cd71         O72   2.480       .  S
Cd71         O75   2.442       .  S
Cd71         O73   2.445       .  S
C74          O78   1.264       .  A
C74        C2138   1.478       .  S
O79          C82   1.266       .  A
O79         Cd84   2.470       .  S
C80          O89   1.267   1_565  A
C80          O85   1.270   1_565  A
C80        C1769   1.486       .  S
O81          C87   1.267       .  A
O81         Cd84   2.500       .  S
C82          O90   1.264       .  A
C82        C2114   1.485       .  S
C83          O88   1.267       .  A
C83          O86   1.265       .  A
C83        C1826   1.471       .  S
Cd84         O91   2.418       .  S
Cd84         O90   2.459       .  S
Cd84         O89   2.424       .  S
Cd84         O85   2.463       .  S
Cd84         O88   2.449       .  S
Cd84         O86   2.442       .  S
C87          O91   1.261       .  A
C87        C1793   1.473       .  S
O92          C95   1.265       .  A
O92         Cd97   2.474       .  S
C93         O102   1.269       .  A
C93          O98   1.267       .  A
C93        C1697   1.482       .  S
O94         C100   1.267       .  A
O94         Cd97   2.482       .  S
C95         O103   1.262       .  A
C95        C1730   1.477       .  S
C96         O101   1.265       .  A
C96          O99   1.264       .  A
C96        C1817   1.480       .  S
Cd97        O104   2.409       .  S
Cd97        O103   2.449       .  S
Cd97        O102   2.446       .  S
Cd97         O98   2.428       .  S
Cd97        O101   2.464       .  S
Cd97         O99   2.410       .  S
C100        O104   1.262       .  A
C100       C1754   1.464       .  S
O105        C108   1.267       .  A
O105       Cd110   2.469       .  S
C106        O115   1.266       .  A
C106        O111   1.269       .  A
C106       C1658   1.483       .  S
O107        C113   1.267       .  A
O107       Cd110   2.483       .  S
C108        O116   1.264       .  A
C108       C1922   1.484       .  S
C109        O114   1.268       .  A
C109        O112   1.264       .  A
C109       C1673   1.484       .  S
Cd110       O117   2.429       .  S
Cd110       O116   2.447       .  S
Cd110       O115   2.448       .  S
Cd110       O111   2.464       .  S
Cd110       O114   2.459       .  S
Cd110       O112   2.436       .  S
C113        O117   1.263       .  A
C113       C1778   1.475       .  S
O118        C121   1.265       .  A
O118       Cd123   2.467       .  S
C119        O128   1.266       .  A
C119        O124   1.269       .  A
C119       C1601   1.485       .  S
O120        C126   1.271       .  A
O120       Cd123   2.497       .  S
C121        O129   1.263       .  A
C121       C1634   1.473       .  S
C122        O127   1.267       .  A
C122        O125   1.261       .  A
C122       C1682   1.470       .  S
Cd123       O130   2.391       .  S
Cd123       O129   2.459       .  S
Cd123       O128   2.448       .  S
Cd123       O124   2.435       .  S
Cd123       O127   2.483       .  S
Cd123       O125   2.414       .  S
C126        O130   1.263       .  A
C126       C1721   1.476       .  S
O131        C134   1.268       .  A
O131       Cd136   2.469       .  S
C132        O141   1.265       .  A
C132        O137   1.267       .  A
C132       C1562   1.484       .  S
O133        C139   1.268       .  A
O133       Cd136   2.492       .  S
C134        O142   1.264       .  A
C134       C1745   1.473       .  S
C135        O140   1.268       .  A
C135        O138   1.265       .  A
C135       C1586   1.487       .  S
Cd136       O143   2.413       .  S
Cd136       O142   2.432       .  S
Cd136       O141   2.464       .  S
Cd136       O137   2.473       .  S
Cd136       O140   2.458       .  S
Cd136       O138   2.453       .  S
C139        O143   1.262       .  A
C139       C1625   1.473       .  S
O144        C147   1.266       .  A
O144       Cd149   2.463       .  S
C145        O154   1.267       .  A
C145        O150   1.267       .  A
C145       C1802   1.487       .  S
O146        C152   1.267       .  A
O146       Cd149   2.487       .  S
C147        O155   1.263       .  A
C147       C1841   1.479       .  S
C148        O153   1.266       .  A
C148        O151   1.265       .  A
C148       C1577   1.474       .  S
Cd149       O156   2.429       .  S
Cd149       O155   2.449       .  S
Cd149       O154   2.443       .  S
Cd149       O150   2.458       .  S
Cd149       O153   2.465       .  S
Cd149       O151   2.446       .  S
C152        O156   1.263       .  A
C152       C1649   1.479   1_545  S
O157        C160   1.267       .  A
O157       Cd162   2.443       .  S
C158        O167   1.262       .  A
C158        O163   1.268       .  A
C158       C1490   1.474       .  S
O159        C165   1.266       .  A
O159       Cd162   2.434       .  S
C160        O168   1.267       .  A
C160       C2042   1.486       .  S
C161        O166   1.262       .  A
C161        O164   1.267       .  A
C161       C1505   1.469       .  S
Cd162       O169   2.434       .  S
Cd162       O168   2.457       .  S
Cd162       O167   2.425       .  S
Cd162       O163   2.486       .  S
Cd162       O166   2.400       .  S
Cd162       O164   2.476       .  S
C165        O169   1.266       .  A
C165       C1529   1.464       .  S
O170        C173   1.266       .  A
O170       Cd175   2.470       .  S
C171        O180   1.267       .  A
C171        O176   1.266       .  A
C171       C1442   1.483       .  S
O172        C178   1.266       .  A
O172       Cd175   2.488       .  S
C173        O181   1.264       .  A
C173       C1418   1.486       .  S
C174        O179   1.266       .  A
C174        O177   1.261       .  A
C174       C1538   1.487       .  S
Cd175       O182   2.414       .  S
Cd175       O181   2.457       .  S
Cd175       O180   2.452       .  S
Cd175       O176   2.444       .  S
Cd175       O179   2.472       .  S
Cd175       O177   2.442       .  S
C178        O182   1.263       .  A
C178       C1466   1.484       .  S
O183        C186   1.262       .  A
O183       Cd188   2.437       .  S
C184        O193   1.268       .  A
C184        O189   1.266       .  A
C184       C1865   1.479       .  S
O185        C191   1.266       .  A
O185       Cd188   2.464       .  S
C186        O194   1.266       .  A
C186       C1514   1.475       .  S
C187        O192   1.266       .  A
C187        O190   1.262       .  A
C187       C1385   1.478       .  S
Cd188       O195   2.425       .  S
Cd188       O194   2.458       .  S
Cd188       O193   2.458       .  S
Cd188       O189   2.426       .  S
Cd188       O192   2.480       .  S
Cd188       O190   2.416       .  S
C191        O195   1.263       .  A
C191       C1361   1.473       .  S
O196        C199   1.270       .  A
O196       Cd201   2.462       .  S
C197        O206   1.264       .  A
C197        O202   1.268       .  A
C197       C1313   1.476       .  S
O198        C204   1.266       .  A
O198       Cd201   2.438       .  S
C199        O207   1.264       .  A
C199       C1457   1.483       .  S
C200        O205   1.268       .  A
C200        O203   1.262       .  A
C200       C1337   1.472       .  S
Cd201       O208   2.457       .  S
Cd201       O207   2.420       .  S
Cd201       O206   2.428       .  S
Cd201       O202   2.471       .  S
Cd201       O205   2.472       .  S
Cd201       O203   2.423       .  S
C204        O208   1.266       .  A
C204       C1394   1.471       .  S
O209        C212   1.266       .  A
O209       Cd214   2.431       .  S
C210        O219   1.267       .  A
C210        O215   1.264       .  A
C210       C1961   1.481       .  S
O211        C217   1.265       .  A
O211       Cd214   2.486       .  S
C212        O220   1.266       .  A
C212       C1370   1.472       .  S
C213        O218   1.266       .  A
C213        O216   1.263       .  A
C213       C1289   1.476       .  S
Cd214       O221   2.425       .  S
Cd214       O220   2.445       .  S
Cd214       O219   2.464       .  S
Cd214       O215   2.442       .  S
Cd214       O218   2.471       .  S
Cd214       O216   2.420       .  S
C217        O221   1.261       .  A
C217       C1481   1.473       .  S
O222        C225   1.264       .  A
O222       Cd227   2.425       .  S
C223        O232   1.263       .  A
C223        O228   1.263       .  A
C223       C1274   1.471       .  S
O224        C230   1.264       .  A
O224       Cd227   2.448       .  S
C225        O233   1.269       .  A
C225       C1346   1.485       .  S
C226        O231   1.266       .  A
C226        O229   1.261       .  A
C226       C1433   1.470       .  S
Cd227       O234   2.466       .  S
Cd227       O233   2.453       .  S
Cd227       O232   2.455       .  S
Cd227       O228   2.455       .  S
Cd227       O231   2.484       .  S
Cd227       O229   2.425       .  S
C230        O234   1.265       .  A
C230       C1298   1.477       .  S
O235        C238   1.264       .  A
O235       Cd240   2.431       .  S
C236        O245   1.263       .  A
C236        O241   1.264       .  A
C236       C1193   1.477       .  S
O237        C243   1.269       .  A
O237       Cd240   2.503       .  S
C238        O246   1.269       .  A
C238       C1178   1.490       .  S
C239        O244   1.267       .  A
C239        O242   1.262       .  A
C239       C1241   1.486       .  S
Cd240       O247   2.430       .  S
Cd240       O246   2.485       .  S
Cd240       O245   2.459       .  S
Cd240       O241   2.485       .  S
Cd240       O244   2.502       .  S
Cd240       O242   2.448       .  S
C243        O247   1.263       .  A
C243       C1226   1.479       .  S
O248        C251   1.271       .  A
O248       Cd253   2.495       .  S
C249        O258   1.264       .  A
C249        O254   1.269       .  A
C249       C1121   1.487       .  S
O250        C256   1.265       .  A
O250       Cd253   2.461       .  S
C251        O259   1.263       .  A
C251       C1553   1.486       .  S
C252        O257   1.268       .  A
C252        O255   1.263       .  A
C252       C1154   1.473       .  S
Cd253       O260   2.470       .  S
Cd253       O259   2.418       .  S
Cd253       O258   2.423       .  S
Cd253       O254   2.492       .  S
Cd253       O257   2.486       .  S
Cd253       O255   2.428       .  S
C256        O260   1.265       .  A
C256       C1250   1.474       .  S
O261        C264   1.267       .  A
O261       Cd266   2.463       .  S
C262        O271   1.262       .  A
C262        O267   1.267       .  A
C262       C1217   1.475       .  S
O263        C269   1.269       .  A
O263       Cd266   2.500       .  S
C264        O272   1.268       .  A
C264       C1049   1.484       .  S
C265        O270   1.266       .  A
C265        O268   1.265       .  A
C265       C1106   1.490       .  S
Cd266       O273   2.422       .  S
Cd266       O272   2.463       .  S
Cd266       O271   2.431       .  S
Cd266       O267   2.498       .  S
Cd266       O270   2.478       .  S
Cd266       O268   2.454       .  S
C269        O273   1.262       .  A
C269       C1073   1.478       .  S
O274        C277   1.267       .  A
O274       Cd279   2.483       .  S
C275        O284   1.266       .  A
C275        O280   1.268       .  A
C275       C1706   1.482       .  S
O276        C282   1.269       .  A
O276       Cd279   2.502       .  S
C277        O285   1.264       .  A
C277       C1145   1.481       .  S
C278        O283   1.268       .  A
C278        O281   1.265       .  A
C278       C1097   1.480   1_554  S
Cd279       O286   2.415       .  S
Cd279       O285   2.446       .  S
Cd279       O284   2.447       .  S
Cd279       O280   2.452       .  S
Cd279       O283   2.472       .  S
Cd279       O281   2.454       .  S
C282        O286   1.262       .  A
C282       C1025   1.477       .  S
O287        C290   1.269       .  A
O287       Cd292   2.463       .  S
C288        O297   1.265       .  A
C288        O293   1.269       .  A
C288       C1082   1.477       .  S
O289        C295   1.271       .  A
O289       Cd292   2.504       .  S
C290        O298   1.267       .  A
C290        C977   1.481       .  S
C291        O296   1.269       .  A
C291        O294   1.266       .  A
C291       C1001   1.482       .  S
Cd292       O299   2.400       .  S
Cd292       O298   2.436       .  S
Cd292       O297   2.445       .  S
Cd292       O293   2.473       .  S
Cd292       O296   2.479       .  S
Cd292       O294   2.437       .  S
C295        O299   1.262       .  A
C295       C1202   1.476       .  S
O300        C303   1.267       .  A
O300       Cd305   2.463       .  S
C301        O310   1.265       .  A
C301        O306   1.263       .  A
C301       C1034   1.480       .  S
O302        C308   1.263       .  A
O302       Cd305   2.457       .  S
C303        O311   1.265       .  A
C303       C1610   1.487       .  S
C304        O309   1.265       .  A
C304        O307   1.264       .  A
C304       C1130   1.485       .  S
Cd305       O312   2.481       .  S
Cd305       O311   2.464       .  S
Cd305       O310   2.489       .  S
Cd305       O306   2.449       .  S
Cd305       O309   2.455       .  S
Cd305       O307   2.472       .  S
C308        O312   1.266       .  A
C308       C1010   1.485       .  S
O313        C316   1.268       .  A
O313       Cd318   2.484       .  S
C314        O323   1.268       .  A
C314        O319   1.260       .  A
C314        C914   1.469       .  S
O315        C321   1.263       .  A
O315       Cd318   2.478       .  S
C316        O324   1.264       .  A
C316        C881   1.490       .  S
C317        O322   1.266       .  A
C317        O320   1.266       .  A
C317        C938   1.480       .  S
Cd318       O325   2.487       .  S
Cd318       O324   2.450       .  S
Cd318       O323   2.507       .  S
Cd318       O319   2.412       .  S
Cd318       O322   2.444       .  S
Cd318       O320   2.460       .  S
C321        O325   1.263       .  A
C321        C962   1.487       .  S
O326        C329   1.267       .  A
O326       Cd331   2.479       .  S
C327        O336   1.268       .  A
C327        O332   1.269       .  A
C327        C833   1.489       .  S
O328        C334   1.268       .  A
O328       Cd331   2.481       .  S
C329        O337   1.264       .  A
C329       C1322   1.487       .  S
C330        O335   1.267       .  A
C330        O333   1.265       .  A
C330        C953   1.478       .  S
Cd331       O338   2.419       .  S
Cd331       O337   2.445       .  S
Cd331       O336   2.438       .  S
Cd331       O332   2.469       .  S
Cd331       O335   2.492       .  S
Cd331       O333   2.442       .  S
C334        O338   1.262       .  A
C334        C866   1.474       .  S
O339        C342   1.267       .  A
O339       Cd344   2.470       .  S
C340        O349   1.264       .  A
C340        O345   1.268       .  A
C340        C857   1.488       .  S
O341        C347   1.268       .  A
O341       Cd344   2.472       .  S
C342        O350   1.265       .  A
C342       C1409   1.488       .  S
C343        O348   1.267       .  A
C343        O346   1.266       .  A
C343        C809   1.477       .  S
Cd344       O351   2.425       .  S
Cd344       O350   2.454       .  S
Cd344       O349   2.428       .  S
Cd344       O345   2.484       .  S
Cd344       O348   2.456       .  S
Cd344       O346   2.438       .  S
C347        O351   1.263       .  A
C347        C794   1.473       .  S
O352        C355   1.265       .  A
O352       Cd357   2.431       .  S
C353        O362   1.264       .  A
C353        O358   1.266       .  A
C353        C929   1.481       .  S
O354        C360   1.268       .  A
O354       Cd357   2.467       .  S
C355        O363   1.268       .  A
C355        C737   1.484       .  S
C356        O361   1.269       .  A
C356        O359   1.262       .  A
C356        C770   1.475       .  S
Cd357       O364   2.431       .  S
Cd357       O363   2.453       .  S
Cd357       O362   2.425       .  S
Cd357       O358   2.467       .  S
Cd357       O361   2.500       .  S
Cd357       O359   2.410       .  S
C360        O364   1.264       .  A
C360        C818   1.482       .  S
O365        C368   1.264       .  A
O365       Cd370   2.421       .  S
C366        O375   1.267       .  A
C366        O371   1.265       .  A
C366        C785   1.482       .  S
O367        C373   1.270       .  A
O367       Cd370   2.513       .  S
C368        O376   1.268       .  A
C368       C1265   1.478       .  S
C369        O374   1.264       .  A
C369        O372   1.263       .  A
C369        C722   1.484       .  S
Cd370       O377   2.385       .  S
Cd370       O376   2.460       .  S
Cd370       O375   2.440       .  S
Cd370       O371   2.438       .  S
Cd370       O374   2.480       .  S
Cd370       O372   2.441       .  S
C373        O377   1.259       .  A
C373        C842   1.479       .  S
O378        C381   1.266       .  A
O378       Cd383   2.480       .  S
C379        O388   1.266       .  A
C379        O384   1.265       .  A
C379        C698   1.479       .  S
O380        C386   1.268       .  A
O380       Cd383   2.473       .  S
C381        O389   1.262       .  A
C381        C761   1.477   1_545  S
C382        O387   1.265       .  A
C382        O385   1.263       .  A
C382        C713   1.478       .  S
Cd383       O390   2.411       .  S
Cd383       O389   2.446       .  S
Cd383       O388   2.465       .  S
Cd383       O384   2.442       .  S
Cd383       O387   2.450       .  S
Cd383       O385   2.453       .  S
C386        O390   1.264       .  A
C386        C905   1.472       .  S
O391        C394   1.265       .  A
O391       Cd396   2.467       .  S
C392        O401   1.267       .  A
C392        O397   1.268       .  A
C392        C626   1.479       .  S
O393        C399   1.262       .  A
O393       Cd396   2.446       .  S
C394        O402   1.264       .  A
C394       C1169   1.483       .  S
C395        O400   1.266       .  A
C395        O398   1.263       .  A
C395        C665   1.484       .  S
Cd396       O403   2.500       .  S
Cd396       O402   2.466       .  S
Cd396       O401   2.450       .  S
Cd396       O397   2.446       .  S
Cd396       O400   2.492       .  S
Cd396       O398   2.447       .  S
C399        O403   1.268       .  A
C399        C641   1.480       .  S
O404        C407   1.269       .  A
O404       Cd409   2.493       .  S
C405        O414   1.265       .  A
C405        O410   1.270       .  A
C405        C890   1.492       .  S
O406        C412   1.269       .  A
O406       Cd409   2.479       .  S
C407        O415   1.263       .  A
C407        C578   1.477   1_455  S
C408        O413   1.267       .  A
C408        O411   1.267       .  A
C408        C674   1.487       .  S
Cd409       O416   2.419       .  S
Cd409       O415   2.420       .  S
Cd409       O414   2.437       .  S
Cd409       O410   2.474       .  S
Cd409       O413   2.461       .  S
Cd409       O411   2.456       .  S
C412        O416   1.263       .  A
C412        C593   1.473       .  S
O417        C420   1.268       .  A
O417       Cd422   2.461       .  S
C418        O427   1.265       .  A
C418        O423   1.266       .  A
C418        C746   1.475       .  S
O419        C425   1.268       .  A
O419       Cd422   2.490       .  S
C420        O428   1.266       .  A
C420        C521   1.478       .  S
C421        O426   1.266       .  A
C421        O424   1.264       .  A
C421        C554   1.482       .  S
Cd422       O429   2.403       .  S
Cd422       O428   2.430       .  S
Cd422       O427   2.435       .  S
Cd422       O423   2.454       .  S
Cd422       O426   2.448       .  S
Cd422       O424   2.449       .  S
C425        O429   1.263       .  A
C425        C569   1.474       .  S
O430        C433   1.267       .  A
O430       Cd435   2.481       .  S
C431        O440   1.264       .  A
C431        O436   1.267       .  A
C431        C506   1.479       .  S
O432        C438   1.262       .  A
O432       Cd435   2.457       .  S
C433        O441   1.263       .  A
C433       C1058   1.486       .  S
C434        O439   1.265       .  A
C434        O437   1.264       .  A
C434        C545   1.473       .  S
Cd435       O442   2.461       .  S
Cd435       O441   2.456       .  S
Cd435       O440   2.467       .  S
Cd435       O436   2.451       .  S
Cd435       O439   2.453       .  S
Cd435       O437   2.441       .  S
C438        O442   1.264       .  A
C438        C617   1.480       .  S
O443        C446   1.260       .  A
O443       Cd448   2.430       .  S
C444        O453   1.269       .  A
C444        O449   1.266       .  A
C444        C689   1.477       .  S
O445        C451   1.267       .  A
O445       Cd448   2.463       .  S
C446        O454   1.265       .  A
C446        C602   1.475   1_655  S
C447        O452   1.262       .  A
C447        O450   1.263       .  A
C447        C473   1.480       .  S
Cd448       O455   2.447       .  S
Cd448       O454   2.489       .  S
Cd448       O453   2.464       .  S
Cd448       O449   2.432       .  S
Cd448       O452   2.448       .  S
Cd448       O450   2.485       .  S
C451        O455   1.264       .  A
C451        C530   1.478       .  S
O456        C459   1.268       .  A
O456       Cd461   2.462       .  S
C457        O466   1.265       .  A
C457        O462   1.265       .  A
C457        C650   1.485       .  S
O458        C464   1.262       .  A
O458       Cd461   2.415       .  S
C459        O467   1.266       .  A
C459        C986   1.482       .  S
C460        O465   1.266       .  A
C460        O463   1.265       .  A
C460        C482   1.488       .  S
Cd461       O468   2.503       .  S
Cd461       O467   2.447       .  S
Cd461       O466   2.466       .  S
Cd461       O462   2.460       .  S
Cd461       O465   2.472       .  S
Cd461       O463   2.453       .  S
C464        O468   1.269       .  A
C464        C497   1.475       .  S
C469        C470   1.401       .  A
C469        C474   1.401       .  A
C469        H479   1.084       .  S
C470        C475   1.476       .  S
C470        C471   1.410       .  A
C471        C472   1.396       .  A
C471        S476   1.805       .  S
C472        C473   1.404   1_455  A
C472        H477   1.084       .  S
C473        C474   1.416   1_655  A
C474        S478   1.799   1_455  S
C475        C480   1.404       .  A
C475        C484   1.400       .  A
S476        H492   1.404       .  S
S478        H489   1.407       .  S
C480        C481   1.401       .  A
C480        S485   1.807       .  S
C481        C482   1.409       .  A
C481        H486   1.082       .  S
C482        C483   1.418       .  A
C483        C484   1.404       .  A
C483        S487   1.808       .  S
C484        H488   1.083       .  S
S485        H490   1.406       .  S
S487        H491   1.407       .  S
C493        C494   1.400       .  A
C493        C498   1.401       .  A
C493        H503   1.083       .  S
C494        C499   1.477       .  S
C494        C495   1.413       .  A
C495        C496   1.401       .  A
C495        S500   1.804       .  S
C496        C497   1.403       .  A
C496        H501   1.084       .  S
C497        C498   1.414       .  A
C498        S502   1.809       .  S
C499        C504   1.408       .  A
C499        C508   1.402       .  A
S500        H516   1.405       .  S
S502        H513   1.407       .  S
C504        C505   1.398       .  A
C504        S509   1.808       .  S
C505        C506   1.404       .  A
C505        H510   1.083       .  S
C506        C507   1.417       .  A
C507        C508   1.403       .  A
C507        S511   1.803       .  S
C508        H512   1.084       .  S
S509        H514   1.407       .  S
S511        H515   1.407       .  S
C517        C518   1.403       .  A
C517        C522   1.398       .  A
C517        H527   1.084       .  S
C518        C523   1.480       .  S
C518        C519   1.411       .  A
C519        C520   1.398       .  A
C519        S524   1.804       .  S
C520        C521   1.406       .  A
C520        H525   1.084       .  S
C521        C522   1.415       .  A
C522        S526   1.802       .  S
C523        C528   1.411       .  A
C523        C532   1.402       .  A
S524        H540   1.406       .  S
S526        H537   1.407       .  S
C528        C529   1.400   1_565  A
C528        S533   1.808       .  S
C529        C530   1.404       .  A
C529        H534   1.083       .  S
C530        C531   1.414       .  A
C531        C532   1.400   1_545  A
C531        S535   1.803       .  S
C532        H536   1.084       .  S
S533        H538   1.407       .  S
S535        H539   1.407       .  S
C541        C542   1.400       .  A
C541        C546   1.396       .  A
C541        H551   1.084       .  S
C542        C547   1.475       .  S
C542        C543   1.412       .  A
C543        C544   1.398       .  A
C543        S548   1.805       .  S
C544        C545   1.403       .  A
C544        H549   1.084       .  S
C545        C546   1.414       .  A
C546        S550   1.800       .  S
C547        C552   1.407       .  A
C547        C556   1.401       .  A
S548        H564   1.406       .  S
S550        H561   1.407       .  S
C552        C553   1.399       .  A
C552        S557   1.808       .  S
C553        C554   1.406       .  A
C553        H558   1.082       .  S
C554        C555   1.417       .  A
C555        C556   1.399       .  A
C555        S559   1.802       .  S
C556        H560   1.084       .  S
S557        H562   1.407       .  S
S559        H563   1.408       .  S
C565        C566   1.401       .  A
C565        C570   1.393       .  A
C565        H575   1.084       .  S
C566        C571   1.478       .  S
C566        C567   1.412       .  A
C567        C568   1.402       .  A
C567        S572   1.803       .  S
C568        C569   1.406       .  A
C568        H573   1.084       .  S
C569        C570   1.412       .  A
C570        S574   1.804       .  S
C571        C576   1.412       .  A
C571        C580   1.400       .  A
S572        H588   1.406       .  S
S574        H585   1.407       .  S
C576        C577   1.404       .  A
C576        S581   1.808       .  S
C577        C578   1.403       .  A
C577        H582   1.083       .  S
C578        C579   1.415       .  A
C579        C580   1.397       .  A
C579        S583   1.804   1_655  S
C580        H584   1.084       .  S
S581        H586   1.407       .  S
S583        H587   1.407       .  S
C589        C590   1.401       .  A
C589        C594   1.397       .  A
C589        H599   1.084       .  S
C590        C595   1.476       .  S
C590        C591   1.413       .  A
C591        C592   1.399       .  A
C591        S596   1.804       .  S
C592        C593   1.402   1_545  A
C592        H597   1.084   1_545  S
C593        C594   1.415   1_565  A
C594        S598   1.805       .  S
C595        C600   1.409       .  A
C595        C604   1.399       .  A
S596        H612   1.406       .  S
S598        H609   1.407       .  S
C600        C601   1.405       .  A
C600        S605   1.806       .  S
C601        C602   1.406       .  A
C601        H606   1.083       .  S
C602        C603   1.414   1_455  A
C603        C604   1.393   1_655  A
C603        S607   1.801       .  S
C604        H608   1.084   1_455  S
S605        H610   1.407       .  S
S607        H611   1.407       .  S
C613        C614   1.400       .  A
C613        C618   1.400       .  A
C613        H623   1.084       .  S
C614        C619   1.473       .  S
C614        C615   1.410       .  A
C615        C616   1.395       .  A
C615        S620   1.806       .  S
C616        C617   1.405       .  A
C616        H621   1.084       .  S
C617        C618   1.417       .  A
C618        S622   1.802       .  S
C619        C624   1.408       .  A
C619        C628   1.400       .  A
S620        H636   1.404       .  S
S622        H633   1.408       .  S
C624        C625   1.398       .  A
C624        S629   1.808       .  S
C625        C626   1.405       .  A
C625        H630   1.083       .  S
C626        C627   1.416       .  A
C627        C628   1.400       .  A
C627        S631   1.802       .  S
C628        H632   1.084       .  S
S629        H634   1.407       .  S
S631        H635   1.407       .  S
C637        C638   1.402       .  A
C637        C642   1.398       .  A
C637        H647   1.084       .  S
C638        C643   1.482       .  S
C638        C639   1.412       .  A
C639        C640   1.402       .  A
C639        S644   1.803       .  S
C640        C641   1.405       .  A
C640        H645   1.084       .  S
C641        C642   1.415       .  A
C642        S646   1.804       .  S
C643        C648   1.408       .  A
C643        C652   1.401       .  A
S644        H660   1.406       .  S
S646        H657   1.407       .  S
C648        C649   1.404       .  A
C648        S653   1.806       .  S
C649        C650   1.408       .  A
C649        H654   1.083       .  S
C650        C651   1.417       .  A
C651        C652   1.398       .  A
C651        S655   1.800       .  S
C652        H656   1.084       .  S
S653        H658   1.407       .  S
S655        H659   1.407       .  S
C661        C662   1.403       .  A
C661        C666   1.401       .  A
C661        H671   1.084       .  S
C662        C667   1.482       .  S
C662        C663   1.410       .  A
C663        C664   1.399       .  A
C663        S668   1.804       .  S
C664        C665   1.407       .  A
C664        H669   1.084       .  S
C665        C666   1.416       .  A
C666        S670   1.801       .  S
C667        C672   1.408       .  A
C667        C676   1.400       .  A
S668        H684   1.406       .  S
S670        H681   1.407       .  S
C672        C673   1.404       .  A
C672        S677   1.806       .  S
C673        C674   1.408       .  A
C673        H678   1.082       .  S
C674        C675   1.419       .  A
C675        C676   1.399       .  A
C675        S679   1.802       .  S
C676        H680   1.084       .  S
S677        H682   1.407       .  S
S679        H683   1.408       .  S
C685        C686   1.402       .  A
C685        C690   1.398       .  A
C685        H695   1.084       .  S
C686        C691   1.479       .  S
C686        C687   1.412       .  A
C687        C688   1.398       .  A
C687        S692   1.804       .  S
C688        C689   1.405       .  A
C688        H693   1.084       .  S
C689        C690   1.414       .  A
C690        S694   1.803       .  S
C691        C696   1.408       .  A
C691        C700   1.401       .  A
S692        H708   1.406       .  S
S694        H705   1.407       .  S
C696        C697   1.404       .  A
C696        S701   1.806       .  S
C697        C698   1.407       .  A
C697        H702   1.083       .  S
C698        C699   1.414       .  A
C699        C700   1.395       .  A
C699        S703   1.803       .  S
C700        H704   1.084       .  S
S701        H706   1.407       .  S
S703        H707   1.407       .  S
C709        C710   1.399       .  A
C709        C714   1.399       .  A
C709        H719   1.084       .  S
C710        C715   1.472       .  S
C710        C711   1.410       .  A
C711        C712   1.395       .  A
C711        S716   1.805       .  S
C712        C713   1.404       .  A
C712        H717   1.084       .  S
C713        C714   1.418       .  A
C714        S718   1.802       .  S
C715        C720   1.405       .  A
C715        C724   1.400       .  A
S716        H732   1.404       .  S
S718        H729   1.408       .  S
C720        C721   1.398       .  A
C720        S725   1.808       .  S
C721        C722   1.408       .  A
C721        H726   1.082       .  S
C722        C723   1.418       .  A
C723        C724   1.400       .  A
C723        S727   1.801       .  S
C724        H728   1.084       .  S
S725        H730   1.407       .  S
S727        H731   1.407       .  S
C733        C734   1.401       .  A
C733        C738   1.402       .  A
C733        H743   1.083       .  S
C734        C739   1.477       .  S
C734        C735   1.408       .  A
C735        C736   1.396       .  A
C735        S740   1.804       .  S
C736        C737   1.407       .  A
C736        H741   1.083       .  S
C737        C738   1.418       .  A
C738        S742   1.809       .  S
C739        C744   1.407       .  A
C739        C748   1.403       .  A
S740        H756   1.406       .  S
S742        H753   1.407       .  S
C744        C745   1.400       .  A
C744        S749   1.807       .  S
C745        C746   1.407       .  A
C745        H750   1.083       .  S
C746        C747   1.412       .  A
C747        C748   1.397       .  A
C747        S751   1.802       .  S
C748        H752   1.084       .  S
S749        H754   1.407       .  S
S751        H755   1.407       .  S
C757        C758   1.403       .  A
C757        C762   1.401       .  A
C757        H767   1.083       .  S
C758        C763   1.479       .  S
C758        C759   1.410       .  A
C759        C760   1.400       .  A
C759        S764   1.803       .  S
C760        C761   1.404       .  A
C760        H765   1.084       .  S
C761        C762   1.414       .  A
C762        S766   1.810   1_565  S
C763        C768   1.410       .  A
C763        C772   1.401       .  A
S764        H780   1.406       .  S
S766        H777   1.407       .  S
C768        C769   1.404       .  A
C768        S773   1.806       .  S
C769        C770   1.404       .  A
C769        H774   1.083       .  S
C770        C771   1.414       .  A
C771        C772   1.397       .  A
C771        S775   1.805       .  S
C772        H776   1.084       .  S
S773        H778   1.407       .  S
S775        H779   1.407       .  S
C781        C782   1.400       .  A
C781        C786   1.398       .  A
C781        H791   1.084       .  S
C782        C787   1.474       .  S
C782        C783   1.408       .  A
C783        C784   1.395       .  A
C783        S788   1.804       .  S
C784        C785   1.407       .  A
C784        H789   1.084       .  S
C785        C786   1.418       .  A
C786        S790   1.802       .  S
C787        C792   1.407       .  A
C787        C796   1.400       .  A
S788        H804   1.406       .  S
S790        H801   1.408       .  S
C792        C793   1.403       .  A
C792        S797   1.805       .  S
C793        C794   1.404       .  A
C793        H798   1.083       .  S
C794        C795   1.415       .  A
C795        C796   1.395       .  A
C795        S799   1.805       .  S
C796        H800   1.084       .  S
S797        H802   1.407       .  S
S799        H803   1.407       .  S
C805        C806   1.401       .  A
C805        C810   1.400       .  A
C805        H815   1.084       .  S
C806        C811   1.473       .  S
C806        C807   1.410       .  A
C807        C808   1.396       .  A
C807        S812   1.804       .  S
C808        C809   1.404       .  A
C808        H813   1.084       .  S
C809        C810   1.415       .  A
C810        S814   1.802       .  S
C811        C816   1.404       .  A
C811        C820   1.400       .  A
S812        H828   1.405       .  S
S814        H825   1.407       .  S
C816        C817   1.402       .  A
C816        S821   1.806       .  S
C817        C818   1.410       .  A
C817        H822   1.082       .  S
C818        C819   1.416       .  A
C819        C820   1.396       .  A
C819        S823   1.801       .  S
C820        H824   1.084       .  S
S821        H826   1.407       .  S
S823        H827   1.408       .  S
C829        C830   1.403       .  A
C829        C834   1.401       .  A
C829        H839   1.084       .  S
C830        C835   1.481       .  S
C830        C831   1.409       .  A
C831        C832   1.397       .  A
C831        S836   1.804       .  S
C832        C833   1.408       .  A
C832        H837   1.083       .  S
C833        C834   1.419       .  A
C834        S838   1.801       .  S
C835        C840   1.410       .  A
C835        C844   1.400       .  A
S836        H852   1.407       .  S
S838        H849   1.408       .  S
C840        C841   1.406       .  A
C840        S845   1.805       .  S
C841        C842   1.406       .  A
C841        H846   1.083       .  S
C842        C843   1.417       .  A
C843        C844   1.393       .  A
C843        S847   1.806       .  S
C844        H848   1.084       .  S
S845        H850   1.407       .  S
S847        H851   1.408       .  S
C853        C854   1.403       .  A
C853        C858   1.400       .  A
C853        H863   1.084       .  S
C854        C859   1.481       .  S
C854        C855   1.409       .  A
C855        C856   1.398       .  A
C855        S860   1.804       .  S
C856        C857   1.409       .  A
C856        H861   1.084       .  S
C857        C858   1.417       .  A
C858        S862   1.800       .  S
C859        C864   1.409       .  A
C859        C868   1.403       .  A
S860        H876   1.407       .  S
S862        H873   1.407       .  S
C864        C865   1.404       .  A
C864        S869   1.806       .  S
C865        C866   1.406       .  A
C865        H870   1.083       .  S
C866        C867   1.412       .  A
C867        C868   1.396       .  A
C867        S871   1.804       .  S
C868        H872   1.084       .  S
S869        H874   1.407       .  S
S871        H875   1.407       .  S
C877        C878   1.400       .  A
C877        C882   1.401       .  A
C877        H887   1.084       .  S
C878        C883   1.483       .  S
C878        C879   1.412       .  A
C879        C880   1.400       .  A
C879        S884   1.805       .  S
C880        C881   1.407       .  A
C880        H885   1.083       .  S
C881        C882   1.420       .  A
C882        S886   1.802       .  S
C883        C888   1.408   1_545  A
C883        C892   1.400       .  A
S884        H900   1.406       .  S
S886        H897   1.408       .  S
C888        C889   1.403       .  A
C888        S893   1.807       .  S
C889        C890   1.408       .  A
C889        H894   1.082       .  S
C890        C891   1.421   1_565  A
C891        C892   1.405       .  A
C891        S895   1.809       .  S
C892        H896   1.083       .  S
S893        H898   1.407       .  S
S895        H899   1.407       .  S
C901        C902   1.402       .  A
C901        C906   1.397       .  A
C901        H911   1.084   1_655  S
C902        C907   1.479   1_655  S
C902        C903   1.414       .  A
C903        C904   1.397       .  A
C903        S908   1.804       .  S
C904        C905   1.402       .  A
C904        H909   1.084       .  S
C905        C906   1.413       .  A
C906        S910   1.803       .  S
C907        C912   1.410       .  A
C907        C916   1.402       .  A
S908        H924   1.407   1_655  S
S910        H921   1.408       .  S
C912        C913   1.406       .  A
C912        S917   1.805       .  S
C913        C914   1.404       .  A
C913        H918   1.083       .  S
C914        C915   1.412       .  A
C915        C916   1.393       .  A
C915        S919   1.806       .  S
C916        H920   1.084   1_455  S
S917        H922   1.407       .  S
S919        H923   1.407       .  S
C925        C926   1.402       .  A
C925        C930   1.400   1_455  A
C925        H935   1.084       .  S
C926        C931   1.476       .  S
C926        C927   1.408   1_455  A
C927        C928   1.395       .  A
C927        S932   1.804   1_655  S
C928        C929   1.407       .  A
C928        H933   1.084       .  S
C929        C930   1.417       .  A
C930        S934   1.802       .  S
C931        C936   1.409       .  A
C931        C940   1.401       .  A
S932        H948   1.406       .  S
S934        H945   1.408       .  S
C936        C937   1.398   1_565  A
C936        S941   1.809   1_455  S
C937        C938   1.406       .  A
C937        H942   1.083       .  S
C938        C939   1.415       .  A
C939        C940   1.401   1_545  A
C939        S943   1.802       .  S
C940        H944   1.084       .  S
S941        H946   1.407   1_665  S
S943        H947   1.407       .  S
C949        C950   1.406       .  A
C949        C954   1.406       .  A
C949        H959   1.084       .  S
C950        C955   1.483       .  S
C950        C951   1.411       .  A
C951        C952   1.394       .  A
C951        S956   1.805       .  S
C952        C953   1.402       .  A
C952        H957   1.084       .  S
C953        C954   1.415       .  A
C954        S958   1.802       .  S
C955        C960   1.409       .  A
C955        C964   1.401       .  A
S956        H972   1.406       .  S
S958        H969   1.407       .  S
C960        C961   1.406       .  A
C960        S965   1.806       .  S
C961        C962   1.408       .  A
C961        H966   1.082       .  S
C962        C963   1.417       .  A
C963        C964   1.399       .  A
C963        S967   1.802       .  S
C964        H968   1.084       .  S
S965        H970   1.407       .  S
S967        H971   1.407       .  S
C973        C974   1.403       .  A
C973        C978   1.401       .  A
C973        H983   1.084       .  S
C974        C979   1.477       .  S
C974        C975   1.409       .  A
C975        C976   1.397       .  A
C975        S980   1.804       .  S
C976        C977   1.407       .  A
C976        H981   1.084       .  S
C977        C978   1.414       .  A
C978        S982   1.802       .  S
C979        C984   1.408       .  A
C979        C988   1.400       .  A
S980        H996   1.405       .  S
S982        H993   1.407       .  S
C984        C985   1.401       .  A
C984        S989   1.808       .  S
C985        C986   1.406       .  A
C985        H990   1.083       .  S
C986        C987   1.416       .  A
C987        C988   1.400       .  A
C987        S991   1.802       .  S
C988        H992   1.084       .  S
S989        H994   1.407       .  S
S991        H995   1.407       .  S
C997        C998   1.404       .  A
C997       C1002   1.402       .  A
C997       H1007   1.084   1_556  S
C998       C1003   1.483   1_556  S
C998        C999   1.412       .  A
C999       C1000   1.398       .  A
C999       S1004   1.805       .  S
C1000      C1001   1.406       .  A
C1000      H1005   1.084       .  S
C1001      C1002   1.415       .  A
C1002      S1006   1.801       .  S
C1003      C1008   1.409       .  A
C1003      C1012   1.401       .  A
S1004      H1020   1.406   1_556  S
S1006      H1017   1.407       .  S
C1008      C1009   1.403       .  A
C1008      S1013   1.807       .  S
C1009      C1010   1.406       .  A
C1009      H1014   1.082       .  S
C1010      C1011   1.418       .  A
C1011      C1012   1.403       .  A
C1011      S1015   1.810       .  S
C1012      H1016   1.083   1_554  S
S1013      H1018   1.407       .  S
S1015      H1019   1.407   1_554  S
C1021      C1022   1.401       .  A
C1021      C1026   1.398       .  A
C1021      H1031   1.084       .  S
C1022      C1027   1.482       .  S
C1022      C1023   1.414       .  A
C1023      C1024   1.400       .  A
C1023      S1028   1.803       .  S
C1024      C1025   1.402       .  A
C1024      H1029   1.084       .  S
C1025      C1026   1.416       .  A
C1026      S1030   1.805       .  S
C1027      C1032   1.410       .  A
C1027      C1036   1.401       .  A
S1028      H1044   1.407       .  S
S1030      H1041   1.408       .  S
C1032      C1033   1.408       .  A
C1032      S1037   1.805       .  S
C1033      C1034   1.407       .  A
C1033      H1038   1.083       .  S
C1034      C1035   1.415       .  A
C1035      C1036   1.394       .  A
C1035      S1039   1.804       .  S
C1036      H1040   1.084       .  S
S1037      H1042   1.407       .  S
S1039      H1043   1.407       .  S
C1045      C1046   1.402       .  A
C1045      C1050   1.401       .  A
C1045      H1055   1.084       .  S
C1046      C1051   1.480       .  S
C1046      C1047   1.410       .  A
C1047      C1048   1.400       .  A
C1047      S1052   1.803       .  S
C1048      C1049   1.407       .  A
C1048      H1053   1.084       .  S
C1049      C1050   1.415       .  A
C1050      S1054   1.802       .  S
C1051      C1056   1.409       .  A
C1051      C1060   1.400       .  A
S1052      H1068   1.405       .  S
S1054      H1065   1.407       .  S
C1056      C1057   1.402       .  A
C1056      S1061   1.808       .  S
C1057      C1058   1.406       .  A
C1057      H1062   1.082       .  S
C1058      C1059   1.418       .  A
C1059      C1060   1.402       .  A
C1059      S1063   1.802       .  S
C1060      H1064   1.084       .  S
S1061      H1066   1.407       .  S
S1063      H1067   1.408       .  S
C1069      C1070   1.402       .  A
C1069      C1074   1.397       .  A
C1069      H1079   1.084       .  S
C1070      C1075   1.485       .  S
C1070      C1071   1.412       .  A
C1071      C1072   1.406       .  A
C1071      S1076   1.807       .  S
C1072      C1073   1.404       .  A
C1072      H1077   1.083       .  S
C1073      C1074   1.414       .  A
C1074      S1078   1.805       .  S
C1075      C1080   1.414       .  A
C1075      C1084   1.403       .  A
S1076      H1092   1.407       .  S
S1078      H1089   1.407       .  S
C1080      C1081   1.402       .  A
C1080      S1085   1.809       .  S
C1081      C1082   1.402       .  A
C1081      H1086   1.083       .  S
C1082      C1083   1.415       .  A
C1083      C1084   1.401       .  A
C1083      S1087   1.803       .  S
C1084      H1088   1.084       .  S
S1085      H1090   1.407       .  S
S1087      H1091   1.407       .  S
C1093      C1094   1.402       .  A
C1093      C1098   1.400       .  A
C1093      H1103   1.084       .  S
C1094      C1099   1.485       .  S
C1094      C1095   1.415       .  A
C1095      C1096   1.399       .  A
C1095      S1100   1.805       .  S
C1096      C1097   1.403       .  A
C1096      H1101   1.084       .  S
C1097      C1098   1.416       .  A
C1098      S1102   1.803   1_556  S
C1099      C1104   1.409       .  A
C1099      C1108   1.401   1_545  A
S1100      H1116   1.406   1_545  S
S1102      H1113   1.407       .  S
C1104      C1105   1.403   1_545  A
C1104      S1109   1.807       .  S
C1105      C1106   1.409       .  A
C1105      H1110   1.082       .  S
C1106      C1107   1.419       .  A
C1107      C1108   1.400       .  A
C1107      S1111   1.800       .  S
C1108      H1112   1.084       .  S
S1109      H1114   1.407       .  S
S1111      H1115   1.408       .  S
C1117      C1118   1.402       .  A
C1117      C1122   1.405       .  A
C1117      H1127   1.083       .  S
C1118      C1123   1.480       .  S
C1118      C1119   1.408       .  A
C1119      C1120   1.397       .  A
C1119      S1124   1.805       .  S
C1120      C1121   1.408       .  A
C1120      H1125   1.084       .  S
C1121      C1122   1.417       .  A
C1122      S1126   1.808       .  S
C1123      C1128   1.409       .  A
C1123      C1132   1.401       .  A
S1124      H1140   1.406       .  S
S1126      H1137   1.407       .  S
C1128      C1129   1.400       .  A
C1128      S1133   1.809       .  S
C1129      C1130   1.406       .  A
C1129      H1134   1.082       .  S
C1130      C1131   1.418       .  A
C1131      C1132   1.402       .  A
C1131      S1135   1.802       .  S
C1132      H1136   1.084       .  S
S1133      H1138   1.407       .  S
S1135      H1139   1.407       .  S
C1141      C1142   1.401       .  A
C1141      C1146   1.404       .  A
C1141      H1151   1.083       .  S
C1142      C1147   1.477       .  S
C1142      C1143   1.411       .  A
C1143      C1144   1.399       .  A
C1143      S1148   1.804       .  S
C1144      C1145   1.404       .  A
C1144      H1149   1.084       .  S
C1145      C1146   1.415       .  A
C1146      S1150   1.808       .  S
C1147      C1152   1.408       .  A
C1147      C1156   1.400       .  A
S1148      H1164   1.405       .  S
S1150      H1161   1.407   1_554  S
C1152      C1153   1.405       .  A
C1152      S1157   1.805       .  S
C1153      C1154   1.405       .  A
C1153      H1158   1.083       .  S
C1154      C1155   1.413       .  A
C1155      C1156   1.396       .  A
C1155      S1159   1.805       .  S
C1156      H1160   1.084       .  S
S1157      H1162   1.407       .  S
S1159      H1163   1.407       .  S
C1165      C1166   1.401       .  A
C1165      C1170   1.402       .  A
C1165      H1175   1.084       .  S
C1166      C1171   1.477       .  S
C1166      C1167   1.411       .  A
C1167      C1168   1.396       .  A
C1167      S1172   1.805       .  S
C1168      C1169   1.404       .  A
C1168      H1173   1.084       .  S
C1169      C1170   1.418       .  A
C1170      S1174   1.802       .  S
C1171      C1176   1.405       .  A
C1171      C1180   1.398       .  A
S1172      H1188   1.405       .  S
S1174      H1185   1.408       .  S
C1176      C1177   1.405       .  A
C1176      S1181   1.805       .  S
C1177      C1178   1.410       .  A
C1177      H1182   1.082       .  S
C1178      C1179   1.420       .  A
C1179      C1180   1.400       .  A
C1179      S1183   1.810       .  S
C1180      H1184   1.083       .  S
S1181      H1186   1.407       .  S
S1183      H1187   1.407       .  S
C1189      C1190   1.402       .  A
C1189      C1194   1.402       .  A
C1189      H1199   1.084       .  S
C1190      C1195   1.479       .  S
C1190      C1191   1.413       .  A
C1191      C1192   1.396       .  A
C1191      S1196   1.806       .  S
C1192      C1193   1.403       .  A
C1192      H1197   1.084       .  S
C1193      C1194   1.415       .  A
C1194      S1198   1.802       .  S
C1195      C1200   1.411       .  A
C1195      C1204   1.399       .  A
S1196      H1212   1.406       .  S
S1198      H1209   1.407       .  S
C1200      C1201   1.404       .  A
C1200      S1205   1.806       .  S
C1201      C1202   1.403       .  A
C1201      H1206   1.083       .  S
C1202      C1203   1.416       .  A
C1203      C1204   1.397       .  A
C1203      S1207   1.805       .  S
C1204      H1208   1.084       .  S
S1205      H1210   1.407       .  S
S1207      H1211   1.407       .  S
C1213      C1214   1.404       .  A
C1213      C1218   1.405       .  A
C1213      H1223   1.084       .  S
C1214      C1219   1.481       .  S
C1214      C1215   1.413       .  A
C1215      C1216   1.394       .  A
C1215      S1220   1.805       .  S
C1216      C1217   1.401       .  A
C1216      H1221   1.084       .  S
C1217      C1218   1.415       .  A
C1218      S1222   1.803       .  S
C1219      C1224   1.411       .  A
C1219      C1228   1.400       .  A
S1220      H1236   1.406       .  S
S1222      H1233   1.407       .  S
C1224      C1225   1.405       .  A
C1224      S1229   1.807       .  S
C1225      C1226   1.405       .  A
C1225      H1230   1.083       .  S
C1226      C1227   1.415       .  A
C1227      C1228   1.399       .  A
C1227      S1231   1.804       .  S
C1228      H1232   1.084       .  S
S1229      H1234   1.407       .  S
S1231      H1235   1.407       .  S
C1237      C1238   1.403       .  A
C1237      C1242   1.398   1_655  A
C1237      H1247   1.084       .  S
C1238      C1243   1.488       .  S
C1238      C1239   1.414   1_655  A
C1239      C1240   1.402       .  A
C1239      S1244   1.804   1_556  S
C1240      C1241   1.406       .  A
C1240      H1245   1.084       .  S
C1241      C1242   1.416       .  A
C1242      S1246   1.803   1_455  S
C1243      C1248   1.413       .  A
C1243      C1252   1.405   1_556  A
S1244      H1260   1.406   1_455  S
S1246      H1257   1.408   1_655  S
C1248      C1249   1.404   1_556  A
C1248      S1253   1.807       .  S
C1249      C1250   1.403       .  A
C1249      H1254   1.083   1_554  S
C1250      C1251   1.412       .  A
C1251      C1252   1.400       .  A
C1251      S1255   1.804       .  S
C1252      H1256   1.084       .  S
S1253      H1258   1.407       .  S
S1255      H1259   1.407       .  S
C1261      C1262   1.400       .  A
C1261      C1266   1.397       .  A
C1261      H1271   1.084       .  S
C1262      C1267   1.475       .  S
C1262      C1263   1.411       .  A
C1263      C1264   1.397       .  A
C1263      S1268   1.805       .  S
C1264      C1265   1.405       .  A
C1264      H1269   1.084       .  S
C1265      C1266   1.416       .  A
C1266      S1270   1.803       .  S
C1267      C1272   1.410       .  A
C1267      C1276   1.401       .  A
S1268      H1284   1.405       .  S
S1270      H1281   1.407       .  S
C1272      C1273   1.400       .  A
C1272      S1277   1.808       .  S
C1273      C1274   1.404       .  A
C1273      H1278   1.083       .  S
C1274      C1275   1.412       .  A
C1275      C1276   1.397       .  A
C1275      S1279   1.803       .  S
C1276      H1280   1.084       .  S
S1277      H1282   1.407       .  S
S1279      H1283   1.407       .  S
C1285      C1286   1.399       .  A
C1285      C1290   1.394       .  A
C1285      H1295   1.084   1_565  S
C1286      C1291   1.472   1_565  S
C1286      C1287   1.411       .  A
C1287      C1288   1.399       .  A
C1287      S1292   1.804       .  S
C1288      C1289   1.406       .  A
C1288      H1293   1.084       .  S
C1289      C1290   1.415       .  A
C1290      S1294   1.803       .  S
C1291      C1296   1.407       .  A
C1291      C1300   1.400       .  A
S1292      H1308   1.405       .  S
S1294      H1305   1.407       .  S
C1296      C1297   1.401       .  A
C1296      S1301   1.807   1_545  S
C1297      C1298   1.406       .  A
C1297      H1302   1.083       .  S
C1298      C1299   1.415       .  A
C1299      C1300   1.397       .  A
C1299      S1303   1.802       .  S
C1300      H1304   1.084       .  S
S1301      H1306   1.407   1_565  S
S1303      H1307   1.407       .  S
C1309      C1310   1.401       .  A
C1309      C1314   1.399       .  A
C1309      H1319   1.084       .  S
C1310      C1315   1.477       .  S
C1310      C1311   1.411       .  A
C1311      C1312   1.399       .  A
C1311      S1316   1.805       .  S
C1312      C1313   1.404       .  A
C1312      H1317   1.084       .  S
C1313      C1314   1.414       .  A
C1314      S1318   1.803       .  S
C1315      C1320   1.405       .  A
C1315      C1324   1.402       .  A
S1316      H1332   1.405       .  S
S1318      H1329   1.407       .  S
C1320      C1321   1.400       .  A
C1320      S1325   1.807       .  S
C1321      C1322   1.409       .  A
C1321      H1326   1.082       .  S
C1322      C1323   1.417       .  A
C1323      C1324   1.406       .  A
C1323      S1327   1.808       .  S
C1324      H1328   1.083       .  S
S1325      H1330   1.407       .  S
S1327      H1331   1.407       .  S
C1333      C1334   1.402       .  A
C1333      C1338   1.397       .  A
C1333      H1343   1.084       .  S
C1334      C1339   1.474       .  S
C1334      C1335   1.410       .  A
C1335      C1336   1.398       .  A
C1335      S1340   1.804       .  S
C1336      C1337   1.404       .  A
C1336      H1341   1.084       .  S
C1337      C1338   1.414       .  A
C1338      S1342   1.805       .  S
C1339      C1344   1.405       .  A
C1339      C1348   1.398       .  A
S1340      H1356   1.405       .  S
S1342      H1353   1.407       .  S
C1344      C1345   1.401       .  A
C1344      S1349   1.806       .  S
C1345      C1346   1.408       .  A
C1345      H1350   1.082       .  S
C1346      C1347   1.421       .  A
C1347      C1348   1.397       .  A
C1347      S1351   1.802       .  S
C1348      H1352   1.084       .  S
S1349      H1354   1.407       .  S
S1351      H1355   1.408       .  S
C1357      C1358   1.399       .  A
C1357      C1362   1.396       .  A
C1357      H1367   1.084       .  S
C1358      C1363   1.470       .  S
C1358      C1359   1.407       .  A
C1359      C1360   1.400       .  A
C1359      S1364   1.808       .  S
C1360      C1361   1.405       .  A
C1360      H1365   1.083       .  S
C1361      C1362   1.414       .  A
C1362      S1366   1.803       .  S
C1363      C1368   1.406       .  A
C1363      C1372   1.399       .  A
S1364      H1380   1.407       .  S
S1366      H1377   1.407       .  S
C1368      C1369   1.402       .  A
C1368      S1373   1.805       .  S
C1369      C1370   1.406       .  A
C1369      H1374   1.083       .  S
C1370      C1371   1.414       .  A
C1371      C1372   1.393       .  A
C1371      S1375   1.803       .  S
C1372      H1376   1.084       .  S
S1373      H1378   1.407       .  S
S1375      H1379   1.408       .  S
C1381      C1382   1.402       .  A
C1381      C1386   1.401       .  A
C1381      H1391   1.084       .  S
C1382      C1387   1.472       .  S
C1382      C1383   1.409       .  A
C1383      C1384   1.392       .  A
C1383      S1388   1.806       .  S
C1384      C1385   1.405       .  A
C1384      H1389   1.084       .  S
C1385      C1386   1.415       .  A
C1386      S1390   1.801       .  S
C1387      C1392   1.407       .  A
C1387      C1396   1.401       .  A
S1388      H1404   1.405       .  S
S1390      H1401   1.407       .  S
C1392      C1393   1.399       .  A
C1392      S1397   1.807       .  S
C1393      C1394   1.404       .  A
C1393      H1398   1.083       .  S
C1394      C1395   1.413       .  A
C1395      C1396   1.398       .  A
C1395      S1399   1.803       .  S
C1396      H1400   1.084       .  S
S1397      H1402   1.407       .  S
S1399      H1403   1.407       .  S
C1405      C1406   1.402       .  A
C1405      C1410   1.399       .  A
C1405      H1415   1.084       .  S
C1406      C1411   1.481       .  S
C1406      C1407   1.410       .  A
C1407      C1408   1.400       .  A
C1407      S1412   1.805       .  S
C1408      C1409   1.409       .  A
C1408      H1413   1.083       .  S
C1409      C1410   1.417       .  A
C1410      S1414   1.801       .  S
C1411      C1416   1.410       .  A
C1411      C1420   1.401       .  A
S1412      H1428   1.406       .  S
S1414      H1425   1.408       .  S
C1416      C1417   1.402       .  A
C1416      S1421   1.807       .  S
C1417      C1418   1.406       .  A
C1417      H1422   1.082       .  S
C1418      C1419   1.418       .  A
C1419      C1420   1.400       .  A
C1419      S1423   1.802       .  S
C1420      H1424   1.084       .  S
S1421      H1426   1.407       .  S
S1423      H1427   1.408       .  S
C1429      C1430   1.402       .  A
C1429      C1434   1.395       .  A
C1429      H1439   1.084       .  S
C1430      C1435   1.478       .  S
C1430      C1431   1.412       .  A
C1431      C1432   1.399       .  A
C1431      S1436   1.803       .  S
C1432      C1433   1.402       .  A
C1432      H1437   1.084       .  S
C1433      C1434   1.414       .  A
C1434      S1438   1.806       .  S
C1435      C1440   1.408       .  A
C1435      C1444   1.400       .  A
S1436      H1452   1.406       .  S
S1438      H1449   1.407       .  S
C1440      C1441   1.402       .  A
C1440      S1445   1.807       .  S
C1441      C1442   1.408       .  A
C1441      H1446   1.082       .  S
C1442      C1443   1.416       .  A
C1443      C1444   1.397       .  A
C1443      S1447   1.802       .  S
C1444      H1448   1.084       .  S
S1445      H1450   1.407       .  S
S1447      H1451   1.407       .  S
C1453      C1454   1.399       .  A
C1453      C1458   1.403       .  A
C1453      H1463   1.083       .  S
C1454      C1459   1.473       .  S
C1454      C1455   1.409       .  A
C1455      C1456   1.396       .  A
C1455      S1460   1.804       .  S
C1456      C1457   1.405       .  A
C1456      H1461   1.083       .  S
C1457      C1458   1.420       .  A
C1458      S1462   1.809       .  S
C1459      C1464   1.405       .  A
C1459      C1468   1.401       .  A
S1460      H1476   1.404       .  S
S1462      H1473   1.407       .  S
C1464      C1465   1.394       .  A
C1464      S1469   1.810       .  S
C1465      C1466   1.407       .  A
C1465      H1470   1.082       .  S
C1466      C1467   1.418       .  A
C1467      C1468   1.407       .  A
C1467      S1471   1.807       .  S
C1468      H1472   1.082       .  S
S1469      H1474   1.406       .  S
S1471      H1475   1.407       .  S
C1477      C1478   1.402       .  A
C1477      C1482   1.396       .  A
C1477      H1487   1.084       .  S
C1478      C1483   1.480       .  S
C1478      C1479   1.412       .  A
C1479      C1480   1.400       .  A
C1479      S1484   1.804       .  S
C1480      C1481   1.405       .  A
C1480      H1485   1.084       .  S
C1481      C1482   1.412       .  A
C1482      S1486   1.804       .  S
C1483      C1488   1.413       .  A
C1483      C1492   1.401       .  A
S1484      H1500   1.406       .  S
S1486      H1497   1.407       .  S
C1488      C1489   1.402       .  A
C1488      S1493   1.808       .  S
C1489      C1490   1.402       .  A
C1489      H1494   1.083       .  S
C1490      C1491   1.414       .  A
C1491      C1492   1.398       .  A
C1491      S1495   1.804       .  S
C1492      H1496   1.084       .  S
S1493      H1498   1.407       .  S
S1495      H1499   1.407       .  S
C1501      C1502   1.402       .  A
C1501      C1506   1.393       .  A
C1501      H1511   1.084       .  S
C1502      C1507   1.478       .  S
C1502      C1503   1.414       .  A
C1503      C1504   1.399       .  A
C1503      S1508   1.804       .  S
C1504      C1505   1.402       .  A
C1504      H1509   1.084       .  S
C1505      C1506   1.412       .  A
C1506      S1510   1.805       .  S
C1507      C1512   1.409       .  A
C1507      C1516   1.401       .  A
S1508      H1524   1.406       .  S
S1510      H1521   1.408       .  S
C1512      C1513   1.400       .  A
C1512      S1517   1.808       .  S
C1513      C1514   1.404       .  A
C1513      H1518   1.083       .  S
C1514      C1515   1.415       .  A
C1515      C1516   1.399       .  A
C1515      S1519   1.809       .  S
C1516      H1520   1.083       .  S
S1517      H1522   1.407       .  S
S1519      H1523   1.407       .  S
C1525      C1526   1.403   1_655  A
C1525      C1530   1.398   1_655  A
C1525      H1535   1.084       .  S
C1526      C1531   1.469   1_455  S
C1526      C1527   1.413       .  A
C1527      C1528   1.394       .  A
C1527      S1532   1.810       .  S
C1528      C1529   1.401       .  A
C1528      H1533   1.085       .  S
C1529      C1530   1.410       .  A
C1530      S1534   1.803       .  S
C1531      C1536   1.405       .  A
C1531      C1540   1.396       .  A
S1532      H1548   1.401       .  S
S1534      H1545   1.407       .  S
C1536      C1537   1.400       .  A
C1536      S1541   1.807       .  S
C1537      C1538   1.409       .  A
C1537      H1542   1.082       .  S
C1538      C1539   1.422       .  A
C1539      C1540   1.401       .  A
C1539      S1543   1.809       .  S
C1540      H1544   1.083       .  S
S1541      H1546   1.407       .  S
S1543      H1547   1.407       .  S
C1549      C1550   1.399       .  A
C1549      C1554   1.400       .  A
C1549      H1559   1.084       .  S
C1550      C1555   1.480       .  S
C1550      C1551   1.412       .  A
C1551      C1552   1.400       .  A
C1551      S1556   1.804       .  S
C1552      C1553   1.405       .  A
C1552      H1557   1.083       .  S
C1553      C1554   1.419       .  A
C1554      S1558   1.803       .  S
C1555      C1560   1.409       .  A
C1555      C1564   1.401       .  A
S1556      H1572   1.406       .  S
S1558      H1569   1.408       .  S
C1560      C1561   1.400       .  A
C1560      S1565   1.809       .  S
C1561      C1562   1.405       .  A
C1561      H1566   1.082       .  S
C1562      C1563   1.416       .  A
C1563      C1564   1.407       .  A
C1563      S1567   1.806       .  S
C1564      H1568   1.083       .  S
S1565      H1570   1.406       .  S
S1567      H1571   1.407       .  S
C1573      C1574   1.402       .  A
C1573      C1578   1.398       .  A
C1573      H1583   1.084       .  S
C1574      C1579   1.480       .  S
C1574      C1575   1.414       .  A
C1575      C1576   1.399       .  A
C1575      S1580   1.804       .  S
C1576      C1577   1.403       .  A
C1576      H1581   1.084       .  S
C1577      C1578   1.413       .  A
C1578      S1582   1.804       .  S
C1579      C1584   1.409       .  A
C1579      C1588   1.401       .  A
S1580      H1596   1.406       .  S
S1582      H1593   1.407       .  S
C1584      C1585   1.402       .  A
C1584      S1589   1.808       .  S
C1585      C1586   1.408       .  A
C1585      H1590   1.082       .  S
C1586      C1587   1.419       .  A
C1587      C1588   1.399       .  A
C1587      S1591   1.801       .  S
C1588      H1592   1.084       .  S
S1589      H1594   1.407       .  S
S1591      H1595   1.408       .  S
C1597      C1598   1.401       .  A
C1597      C1602   1.402       .  A
C1597      H1607   1.084       .  S
C1598      C1603   1.478       .  S
C1598      C1599   1.410       .  A
C1599      C1600   1.394       .  A
C1599      S1604   1.805       .  S
C1600      C1601   1.405       .  A
C1600      H1605   1.083       .  S
C1601      C1602   1.420       .  A
C1602      S1606   1.802       .  S
C1603      C1608   1.408       .  A
C1603      C1612   1.400       .  A
S1604      H1620   1.406       .  S
S1606      H1617   1.408       .  S
C1608      C1609   1.399       .  A
C1608      S1613   1.809       .  S
C1609      C1610   1.406       .  A
C1609      H1614   1.082       .  S
C1610      C1611   1.418       .  A
C1611      C1612   1.406       .  A
C1611      S1615   1.807       .  S
C1612      H1616   1.083       .  S
S1613      H1618   1.407       .  S
S1615      H1619   1.407       .  S
C1621      C1622   1.402       .  A
C1621      C1626   1.394       .  A
C1621      H1631   1.084       .  S
C1622      C1627   1.480       .  S
C1622      C1623   1.413       .  A
C1623      C1624   1.402       .  A
C1623      S1628   1.803       .  S
C1624      C1625   1.404       .  A
C1624      H1629   1.084       .  S
C1625      C1626   1.413       .  A
C1626      S1630   1.805       .  S
C1627      C1632   1.410       .  A
C1627      C1636   1.402       .  A
S1628      H1644   1.406       .  S
S1630      H1641   1.407       .  S
C1632      C1633   1.403       .  A
C1632      S1637   1.807       .  S
C1633      C1634   1.403       .  A
C1633      H1638   1.083       .  S
C1634      C1635   1.414       .  A
C1635      C1636   1.397       .  A
C1635      S1639   1.804       .  S
C1636      H1640   1.084       .  S
S1637      H1642   1.407       .  S
S1639      H1643   1.407       .  S
C1645      C1646   1.402       .  A
C1645      C1650   1.408       .  A
C1645      H1655   1.083       .  S
C1646      C1651   1.477       .  S
C1646      C1647   1.410       .  A
C1647      C1648   1.394       .  A
C1647      S1652   1.804       .  S
C1648      C1649   1.403       .  A
C1648      H1653   1.084       .  S
C1649      C1650   1.416       .  A
C1650      S1654   1.807       .  S
C1651      C1656   1.408       .  A
C1651      C1660   1.400       .  A
S1652      H1668   1.404       .  S
S1654      H1665   1.407       .  S
C1656      C1657   1.400       .  A
C1656      S1661   1.807       .  S
C1657      C1658   1.405       .  A
C1657      H1662   1.083       .  S
C1658      C1659   1.417       .  A
C1659      C1660   1.401       .  A
C1659      S1663   1.802       .  S
C1660      H1664   1.084       .  S
S1661      H1666   1.407       .  S
S1663      H1667   1.407       .  S
C1669      C1670   1.400       .  A
C1669      C1674   1.397       .  A
C1669      H1679   1.084       .  S
C1670      C1675   1.477       .  S
C1670      C1671   1.411       .  A
C1671      C1672   1.397       .  A
C1671      S1676   1.805       .  S
C1672      C1673   1.406       .  A
C1672      H1677   1.084       .  S
C1673      C1674   1.419       .  A
C1674      S1678   1.802       .  S
C1675      C1680   1.410       .  A
C1675      C1684   1.401       .  A
S1676      H1692   1.406       .  S
S1678      H1689   1.408       .  S
C1680      C1681   1.402       .  A
C1680      S1685   1.806       .  S
C1681      C1682   1.403       .  A
C1681      H1686   1.083       .  S
C1682      C1683   1.413       .  A
C1683      C1684   1.395       .  A
C1683      S1687   1.805       .  S
C1684      H1688   1.084       .  S
S1685      H1690   1.407       .  S
S1687      H1691   1.407       .  S
C1693      C1694   1.403       .  A
C1693      C1698   1.402       .  A
C1693      H1703   1.083       .  S
C1694      C1699   1.482       .  S
C1694      C1695   1.411       .  A
C1695      C1696   1.397       .  A
C1695      S1700   1.804       .  S
C1696      C1697   1.406       .  A
C1696      H1701   1.084       .  S
C1697      C1698   1.416       .  A
C1698      S1702   1.809       .  S
C1699      C1704   1.409       .  A
C1699      C1708   1.403       .  A
S1700      H1716   1.407       .  S
S1702      H1713   1.407       .  S
C1704      C1705   1.403       .  A
C1704      S1709   1.807       .  S
C1705      C1706   1.408       .  A
C1705      H1710   1.082       .  S
C1706      C1707   1.414       .  A
C1707      C1708   1.396       .  A
C1707      S1711   1.802       .  S
C1708      H1712   1.084       .  S
S1709      H1714   1.407       .  S
S1711      H1715   1.407       .  S
C1717      C1718   1.401       .  A
C1717      C1722   1.394       .  A
C1717      H1727   1.084       .  S
C1718      C1723   1.481       .  S
C1718      C1719   1.413       .  A
C1719      C1720   1.401       .  A
C1719      S1724   1.803       .  S
C1720      C1721   1.404       .  A
C1720      H1725   1.084       .  S
C1721      C1722   1.415       .  A
C1722      S1726   1.805       .  S
C1723      C1728   1.409       .  A
C1723      C1732   1.402       .  A
S1724      H1740   1.407       .  S
S1726      H1737   1.408       .  S
C1728      C1729   1.403       .  A
C1728      S1733   1.806       .  S
C1729      C1730   1.406       .  A
C1729      H1734   1.083       .  S
C1730      C1731   1.415       .  A
C1731      C1732   1.396       .  A
C1731      S1735   1.804       .  S
C1732      H1736   1.084       .  S
S1733      H1738   1.407       .  S
S1735      H1739   1.407       .  S
C1741      C1742   1.402       .  A
C1741      C1746   1.396       .  A
C1741      H1751   1.084       .  S
C1742      C1747   1.476       .  S
C1742      C1743   1.410       .  A
C1743      C1744   1.399       .  A
C1743      S1748   1.804       .  S
C1744      C1745   1.405       .  A
C1744      H1749   1.084       .  S
C1745      C1746   1.413       .  A
C1746      S1750   1.803       .  S
C1747      C1752   1.412       .  A
C1747      C1756   1.401       .  A
S1748      H1764   1.406       .  S
S1750      H1761   1.407       .  S
C1752      C1753   1.401       .  A
C1752      S1757   1.808       .  S
C1753      C1754   1.400       .  A
C1753      H1758   1.083       .  S
C1754      C1755   1.411       .  A
C1755      C1756   1.397       .  A
C1755      S1759   1.805       .  S
C1756      H1760   1.084       .  S
S1757      H1762   1.407       .  S
S1759      H1763   1.407       .  S
C1765      C1766   1.402       .  A
C1765      C1770   1.400       .  A
C1765      H1775   1.084       .  S
C1766      C1771   1.479       .  S
C1766      C1767   1.409       .  A
C1767      C1768   1.396       .  A
C1767      S1772   1.804       .  S
C1768      C1769   1.408       .  A
C1768      H1773   1.083       .  S
C1769      C1770   1.417       .  A
C1770      S1774   1.801       .  S
C1771      C1776   1.408       .  A
C1771      C1780   1.402   1_455  A
S1772      H1788   1.406       .  S
S1774      H1785   1.408       .  S
C1776      C1777   1.405   1_455  A
C1776      S1781   1.806       .  S
C1777      C1778   1.406       .  A
C1777      H1782   1.083       .  S
C1778      C1779   1.413       .  A
C1779      C1780   1.395       .  A
C1779      S1783   1.804       .  S
C1780      H1784   1.084       .  S
S1781      H1786   1.407       .  S
S1783      H1787   1.407       .  S
C1789      C1790   1.403       .  A
C1789      C1794   1.394       .  A
C1789      H1799   1.084       .  S
C1790      C1795   1.482       .  S
C1790      C1791   1.413       .  A
C1791      C1792   1.402       .  A
C1791      S1796   1.803       .  S
C1792      C1793   1.404       .  A
C1792      H1797   1.084       .  S
C1793      C1794   1.413       .  A
C1794      S1798   1.805       .  S
C1795      C1800   1.408       .  A
C1795      C1804   1.402       .  A
S1796      H1812   1.406       .  S
S1798      H1809   1.407       .  S
C1800      C1801   1.400   1_455  A
C1800      S1805   1.808       .  S
C1801      C1802   1.408       .  A
C1801      H1806   1.082       .  S
C1802      C1803   1.418       .  A
C1803      C1804   1.404   1_655  A
C1803      S1807   1.809       .  S
C1804      H1808   1.083       .  S
S1805      H1810   1.407   1_455  S
S1807      H1811   1.407   1_655  S
C1813      C1814   1.400       .  A
C1813      C1818   1.399       .  A
C1813      H1823   1.084       .  S
C1814      C1819   1.471       .  S
C1814      C1815   1.408       .  A
C1815      C1816   1.393       .  A
C1815      S1820   1.804       .  S
C1816      C1817   1.406       .  A
C1816      H1821   1.084       .  S
C1817      C1818   1.418       .  A
C1818      S1822   1.801       .  S
C1819      C1824   1.405       .  A
C1819      C1828   1.402       .  A
S1820      H1836   1.406       .  S
S1822      H1833   1.408       .  S
C1824      C1825   1.402       .  A
C1824      S1829   1.806   1_545  S
C1825      C1826   1.406       .  A
C1825      H1830   1.083       .  S
C1826      C1827   1.411       .  A
C1827      C1828   1.395       .  A
C1827      S1831   1.803       .  S
C1828      H1832   1.084       .  S
S1829      H1834   1.407       .  S
S1831      H1835   1.407       .  S
C1837      C1838   1.401       .  A
C1837      C1842   1.401       .  A
C1837      H1847   1.084       .  S
C1838      C1843   1.474       .  S
C1838      C1839   1.411       .  A
C1839      C1840   1.396       .  A
C1839      S1844   1.807       .  S
C1840      C1841   1.404       .  A
C1840      H1845   1.084       .  S
C1841      C1842   1.416       .  A
C1842      S1846   1.803       .  S
C1843      C1848   1.405       .  A
C1843      C1852   1.401   1_545  A
S1844      H1860   1.403       .  S
S1846      H1857   1.407       .  S
C1848      C1849   1.401       .  A
C1848      S1853   1.807       .  S
C1849      C1850   1.409   1_545  A
C1849      H1854   1.082       .  S
C1850      C1851   1.415       .  A
C1851      C1852   1.399       .  A
C1851      S1855   1.802       .  S
C1852      H1856   1.084       .  S
S1853      H1858   1.407       .  S
S1855      H1859   1.407       .  S
C1861      C1862   1.401       .  A
C1861      C1866   1.400       .  A
C1861      H1871   1.083       .  S
C1862      C1867   1.477       .  S
C1862      C1863   1.410       .  A
C1863      C1864   1.398       .  A
C1863      S1868   1.804       .  S
C1864      C1865   1.406       .  A
C1864      H1869   1.084       .  S
C1865      C1866   1.415       .  A
C1866      S1870   1.809       .  S
C1867      C1872   1.407       .  A
C1867      C1876   1.400       .  A
S1868      H1884   1.406       .  S
S1870      H1881   1.407       .  S
C1872      C1873   1.402       .  A
C1872      S1877   1.806       .  S
C1873      C1874   1.409       .  A
C1873      H1878   1.082       .  S
C1874      C1875   1.418       .  A
C1875      C1876   1.395       .  A
C1875      S1879   1.802       .  S
C1876      H1880   1.084       .  S
S1877      H1882   1.407       .  S
S1879      H1883   1.408       .  S
C1885      C1886   1.404       .  A
C1885      C1890   1.399       .  A
C1885      H1895   1.084       .  S
C1886      C1891   1.478       .  S
C1886      C1887   1.411       .  A
C1887      C1888   1.395       .  A
C1887      S1892   1.804       .  S
C1888      C1889   1.403       .  A
C1888      H1893   1.084       .  S
C1889      C1890   1.413       .  A
C1890      S1894   1.803       .  S
C1891      C1896   1.408       .  A
C1891      C1900   1.402       .  A
S1892      H1908   1.406       .  S
S1894      H1905   1.407       .  S
C1896      C1897   1.400       .  A
C1896      S1901   1.807       .  S
C1897      C1898   1.406       .  A
C1897      H1902   1.083       .  S
C1898      C1899   1.414       .  A
C1899      C1900   1.397       .  A
C1899      S1903   1.802       .  S
C1900      H1904   1.084       .  S
S1901      H1906   1.407       .  S
S1903      H1907   1.408       .  S
C1909      C1910   1.402       .  A
C1909      C1914   1.404       .  A
C1909      H1919   1.084       .  S
C1910      C1915   1.479       .  S
C1910      C1911   1.410       .  A
C1911      C1912   1.395       .  A
C1911      S1916   1.805       .  S
C1912      C1913   1.406       .  A
C1912      H1917   1.084       .  S
C1913      C1914   1.419       .  A
C1914      S1918   1.801       .  S
C1915      C1920   1.407       .  A
C1915      C1924   1.402       .  A
S1916      H1932   1.406       .  S
S1918      H1929   1.408       .  S
C1920      C1921   1.403       .  A
C1920      S1925   1.806       .  S
C1921      C1922   1.409       .  A
C1921      H1926   1.082       .  S
C1922      C1923   1.414       .  A
C1923      C1924   1.398       .  A
C1923      S1927   1.802       .  S
C1924      H1928   1.084       .  S
S1925      H1930   1.407       .  S
S1927      H1931   1.408       .  S
C1933      C1934   1.403       .  A
C1933      C1938   1.396       .  A
C1933      H1943   1.084       .  S
C1934      C1939   1.482       .  S
C1934      C1935   1.413       .  A
C1935      C1936   1.401       .  A
C1935      S1940   1.803       .  S
C1936      C1937   1.403       .  A
C1936      H1941   1.084       .  S
C1937      C1938   1.412       .  A
C1938      S1942   1.804       .  S
C1939      C1944   1.408       .  A
C1939      C1948   1.403       .  A
S1940      H1956   1.406       .  S
S1942      H1953   1.407       .  S
C1944      C1945   1.402       .  A
C1944      S1949   1.807       .  S
C1945      C1946   1.409       .  A
C1945      H1950   1.083       .  S
C1946      C1947   1.415       .  A
C1947      C1948   1.398       .  A
C1947      S1951   1.799       .  S
C1948      H1952   1.084       .  S
S1949      H1954   1.407       .  S
S1951      H1955   1.407       .  S
C1957      C1958   1.402       .  A
C1957      C1962   1.397       .  A
C1957      H1967   1.084       .  S
C1958      C1963   1.479       .  S
C1958      C1959   1.410       .  A
C1959      C1960   1.399       .  A
C1959      S1964   1.803       .  S
C1960      C1961   1.406       .  A
C1960      H1965   1.084       .  S
C1961      C1962   1.417       .  A
C1962      S1966   1.803       .  S
C1963      C1968   1.407       .  A
C1963      C1972   1.401       .  A
S1964      H1980   1.406       .  S
S1966      H1977   1.407       .  S
C1968      C1969   1.402       .  A
C1968      S1973   1.807       .  S
C1969      C1970   1.408       .  A
C1969      H1974   1.082       .  S
C1970      C1971   1.417       .  A
C1971      C1972   1.398       .  A
C1971      S1975   1.802       .  S
C1972      H1976   1.084       .  S
S1973      H1978   1.407       .  S
S1975      H1979   1.407       .  S
C1981      C1982   1.399       .  A
C1981      C1986   1.399       .  A
C1981      H1991   1.083       .  S
C1982      C1987   1.477       .  S
C1982      C1983   1.408       .  A
C1983      C1984   1.401       .  A
C1983      S1988   1.803       .  S
C1984      C1985   1.409       .  A
C1984      H1989   1.083       .  S
C1985      C1986   1.421       .  A
C1986      S1990   1.811       .  S
C1987      C1992   1.409       .  A
C1987      C1996   1.399       .  A
S1988      H2004   1.406       .  S
S1990      H2001   1.407       .  S
C1992      C1993   1.404       .  A
C1992      S1997   1.805       .  S
C1993      C1994   1.404       .  A
C1993      H1998   1.083       .  S
C1994      C1995   1.415       .  A
C1995      C1996   1.395       .  A
C1995      S1999   1.805       .  S
C1996      H2000   1.084       .  S
S1997      H2002   1.407       .  S
S1999      H2003   1.408       .  S
C2005      C2006   1.402       .  A
C2005      C2010   1.397       .  A
C2005      H2015   1.084       .  S
C2006      C2011   1.478       .  S
C2006      C2007   1.411       .  A
C2007      C2008   1.399       .  A
C2007      S2012   1.804       .  S
C2008      C2009   1.404       .  A
C2008      H2013   1.084       .  S
C2009      C2010   1.413       .  A
C2010      S2014   1.803       .  S
C2011      C2016   1.408       .  A
C2011      C2020   1.403       .  A
S2012      H2028   1.406       .  S
S2014      H2025   1.407       .  S
C2016      C2017   1.399       .  A
C2016      S2021   1.807       .  S
C2017      C2018   1.404       .  A
C2017      H2022   1.083       .  S
C2018      C2019   1.412       .  A
C2019      C2020   1.399       .  A
C2019      S2023   1.803       .  S
C2020      H2024   1.084       .  S
S2021      H2026   1.407       .  S
S2023      H2027   1.407       .  S
C2029      C2030   1.401       .  A
C2029      C2034   1.402       .  A
C2029      H2039   1.083       .  S
C2030      C2035   1.481       .  S
C2030      C2031   1.409       .  A
C2031      C2032   1.400       .  A
C2031      S2036   1.803       .  S
C2032      C2033   1.408       .  A
C2032      H2037   1.084       .  S
C2033      C2034   1.420       .  A
C2034      S2038   1.810       .  S
C2035      C2040   1.408       .  A
C2035      C2044   1.401       .  A
S2036      H2052   1.407       .  S
S2038      H2049   1.407       .  S
C2040      C2041   1.404       .  A
C2040      S2045   1.806       .  S
C2041      C2042   1.409       .  A
C2041      H2046   1.082       .  S
C2042      C2043   1.416       .  A
C2043      C2044   1.397       .  A
C2043      S2047   1.802       .  S
C2044      H2048   1.084       .  S
S2045      H2050   1.407       .  S
S2047      H2051   1.408       .  S
C2053      C2054   1.403       .  A
C2053      C2058   1.399       .  A
C2053      H2063   1.083       .  S
C2054      C2059   1.485       .  S
C2054      C2055   1.413       .  A
C2055      C2056   1.400       .  A
C2055      S2060   1.803       .  S
C2056      C2057   1.404       .  A
C2056      H2061   1.084       .  S
C2057      C2058   1.416       .  A
C2058      S2062   1.809       .  S
C2059      C2064   1.413       .  A
C2059      C2068   1.402       .  A
S2060      H2076   1.407       .  S
S2062      H2073   1.407       .  S
C2064      C2065   1.404       .  A
C2064      S2069   1.807       .  S
C2065      C2066   1.404       .  A
C2065      H2070   1.083       .  S
C2066      C2067   1.413       .  A
C2067      C2068   1.395       .  A
C2067      S2071   1.804       .  S
C2068      H2072   1.084       .  S
S2069      H2074   1.407       .  S
S2071      H2075   1.408       .  S
C2077      C2078   1.400       .  A
C2077      C2082   1.399       .  A
C2077      H2087   1.084       .  S
C2078      C2083   1.478       .  S
C2078      C2079   1.410       .  A
C2079      C2080   1.398       .  A
C2079      S2084   1.805       .  S
C2080      C2081   1.408       .  A
C2080      H2085   1.084       .  S
C2081      C2082   1.418       .  A
C2082      S2086   1.801       .  S
C2083      C2088   1.407       .  A
C2083      C2092   1.403       .  A
S2084      H2100   1.406       .  S
S2086      H2097   1.408       .  S
C2088      C2089   1.396       .  A
C2088      S2093   1.810       .  S
C2089      C2090   1.406       .  A
C2089      H2094   1.082       .  S
C2090      C2091   1.416       .  A
C2091      C2092   1.408       .  A
C2091      S2095   1.807       .  S
C2092      H2096   1.083       .  S
S2093      H2098   1.407       .  S
S2095      H2099   1.407       .  S
C2101      C2102   1.400       .  A
C2101      C2106   1.400       .  A
C2101      H2111   1.084       .  S
C2102      C2107   1.478       .  S
C2102      C2103   1.414       .  A
C2103      C2104   1.399       .  A
C2103      S2108   1.809       .  S
C2104      C2105   1.406       .  A
C2104      H2109   1.084       .  S
C2105      C2106   1.419       .  A
C2106      S2110   1.802       .  S
C2107      C2112   1.406       .  A
C2107      C2116   1.401       .  A
S2108      H2124   1.402       .  S
S2110      H2121   1.408       .  S
C2112      C2113   1.404       .  A
C2112      S2117   1.806       .  S
C2113      C2114   1.410       .  A
C2113      H2118   1.082       .  S
C2114      C2115   1.416       .  A
C2115      C2116   1.399       .  A
C2115      S2119   1.802       .  S
C2116      H2120   1.084       .  S
S2117      H2122   1.407       .  S
S2119      H2123   1.407       .  S
C2125      C2126   1.399       .  A
C2125      C2130   1.399   1_655  A
C2125      H2135   1.084       .  S
C2126      C2131   1.476       .  S
C2126      C2127   1.411       .  A
C2127      C2128   1.399   1_655  A
C2127      S2132   1.804       .  S
C2128      C2129   1.405       .  A
C2128      H2133   1.084       .  S
C2129      C2130   1.418       .  A
C2130      S2134   1.802       .  S
C2131      C2136   1.407       .  A
C2131      C2140   1.402       .  A
S2132      H2148   1.404       .  S
S2134      H2145   1.408       .  S
C2136      C2137   1.396       .  A
C2136      S2141   1.809       .  S
C2137      C2138   1.403       .  A
C2137      H2142   1.083       .  S
C2138      C2139   1.416       .  A
C2139      C2140   1.406       .  A
C2139      S2143   1.808       .  S
C2140      H2144   1.083       .  S
S2141      H2146   1.407       .  S
S2143      H2147   1.407       .  S
C2149      C2150   1.400       .  A
C2149      C2154   1.405       .  A
C2149      H2159   1.083       .  S
C2150      C2155   1.475       .  S
C2150      C2151   1.410       .  A
C2151      C2152   1.395   1_545  A
C2151      S2156   1.804       .  S
C2152      C2153   1.404       .  A
C2152      H2157   1.084       .  S
C2153      C2154   1.418   1_565  A
C2154      S2158   1.808   1_545  S
C2155      C2160   1.407       .  A
C2155      C2164   1.402       .  A
S2156      H2172   1.404       .  S
S2158      H2169   1.407   1_565  S
C2160      C2161   1.397       .  A
C2160      S2165   1.808       .  S
C2161      C2162   1.403       .  A
C2161      H2166   1.083       .  S
C2162      C2163   1.415       .  A
C2163      C2164   1.402       .  A
C2163      S2167   1.802       .  S
C2164      H2168   1.084       .  S
S2165      H2170   1.407       .  S
S2167      H2171   1.407       .  S
C2173      C2174   1.404       .  A
C2173      C2178   1.402       .  A
C2173      H2183   1.083       .  S
C2174      C2179   1.480       .  S
C2174      C2175   1.410       .  A
C2175      C2176   1.398       .  A
C2175      S2180   1.804       .  S
C2176      C2177   1.404       .  A
C2176      H2181   1.084       .  S
C2177      C2178   1.411       .  A
C2178      S2182   1.807       .  S
C2179      C2184   1.408       .  A
C2179      C2188   1.400       .  A
S2180      H2196   1.406       .  S
S2182      H2193   1.407       .  S
C2184      C2185   1.401       .  A
C2184      S2189   1.807       .  S
C2185      C2186   1.407       .  A
C2185      H2190   1.083       .  S
C2186      C2187   1.418       .  A
C2187      C2188   1.398       .  A
C2187      S2191   1.801       .  S
C2188      H2192   1.084       .  S
S2189      H2194   1.407       .  S
S2191      H2195   1.408       .  S
