geometry optimzed in LAMMPS
_audit_creation_date              2020-12-01 
_audit_creation_method            'lammps2cif' 
_symmetry_space_group_name_H-M    'P1' 
_symmetry_Int_Tables_number       1 
_symmetry_cell_setting            triclinic 
loop_ 
_symmetry_equiv_pos_as_xyz 
  x,y,z 
_cell_length_a                    92.86459231 
_cell_length_b                    92.6035557212666 
_cell_length_c                    28.847927836719148 
_cell_angle_alpha                 91.35077868869402 
_cell_angle_beta                  88.76676201838102 
_cell_angle_gamma                 122.77169351196865 
loop_ 
_atom_site_label 
_atom_site_type_symbol 
_atom_site_fract_x 
_atom_site_fract_y 
_atom_site_fract_z 
_atom_site_charge 
In1        In  0.50170406  0.92393884  0.96367686     1.36900
C2          C  0.51116730  0.95624793  0.98283568     0.77800
O3          O  0.50494295  0.93135439  0.88913976    -0.60600
O4          O  0.48080833  0.91025182  0.90985441    -0.51500
C5          C  0.51969888  0.90926468  0.95285720     0.70500
O6          O  0.52674363  0.92536095  0.95622411    -0.46400
C7          C  0.48625659  0.91202907  0.04589439     0.75200
O8          O  0.52202698  0.95212919  0.97644643    -0.58300
O9          O  0.47791934  0.90972830  0.00934595    -0.48300
O10         O  0.49582897  0.94397652  0.97831348    -0.54700
C11         C  0.49002279  0.91984327  0.87700021     0.85400
O12         O  0.50355653  0.90085382  0.95495996    -0.56600
O13         O  0.50221161  0.91964335  0.03947872    -0.59900
In14       In  0.53558789  0.10413205  0.05819381     1.36900
C15         C  0.53144466  0.07346777  0.04556211     0.77800
O16         O  0.53325459  0.10621117  0.98260477    -0.60600
O17         O  0.55834299  0.11998568  0.01051410    -0.51500
C18         C  0.51438366  0.11506062  0.06708099     0.70500
O19         O  0.50899451  0.09923839  0.06555815    -0.46400
C20         C  0.54741979  0.11203696  0.14443128     0.75200
O21         O  0.51918260  0.07564913  0.04215328    -0.58300
O22         O  0.55633797  0.12062548  0.10980990    -0.48300
O23         O  0.54550064  0.08684868  0.05640994    -0.54700
C24         C  0.54911092  0.11572246  0.97485317     0.85400
O25         O  0.53045643  0.12497638  0.06354755    -0.56600
O26         O  0.53258924  0.09963488  0.13431960    -0.59900
In27       In  0.58789684  0.11191703  0.55335799     1.36900
C28         C  0.56445939  0.07890819  0.53847912     0.77800
O29         O  0.58276424  0.10473251  0.62773638    -0.60600
O30         O  0.57974353  0.12466724  0.60592726    -0.51500
C31         C  0.62149133  0.12851528  0.56730456     0.70500
O32         O  0.61226168  0.11246910  0.56015562    -0.46400
C33         C  0.58608875  0.12269998  0.47005959     0.75200
O34         O  0.58027151  0.08463114  0.54014136    -0.58300
O35         O  0.57917506  0.12476413  0.50571215    -0.48300
O36         O  0.56083099  0.09012767  0.54417558    -0.54700
C37         C  0.57914630  0.11564958  0.63909174     0.85400
O38         O  0.61341010  0.13590647  0.56647268    -0.56600
O39         O  0.59431232  0.11582215  0.47807013    -0.59900
In40       In  0.44727827  0.92315415  0.46370445     1.36900
C41         C  0.47227690  0.95581747  0.47186418     0.77800
O42         O  0.44378082  0.92311181  0.54049944    -0.60600
O43         O  0.45419846  0.90917179  0.51370504    -0.51500
C44         C  0.41410336  0.90986262  0.45286234     0.70500
O45         O  0.42456712  0.92542340  0.46333575    -0.46400
C46         C  0.45423057  0.91770026  0.37706928     0.75200
O47         O  0.45690594  0.95114411  0.46579894    -0.58300
O48         O  0.45363794  0.90878740  0.41063801    -0.48300
O49         O  0.47479296  0.94373392  0.47295064    -0.54700
C50         C  0.45029034  0.91458765  0.54946492     0.85400
O51         O  0.42055699  0.90085354  0.45035566    -0.56600
O52         O  0.45140427  0.92913129  0.38863257    -0.59900
In53       In  0.49941447  0.58270678  0.47946245     1.36900
C54         C  0.50599290  0.55842745  0.48969949     0.77800
O55         O  0.50216180  0.59008104  0.55431104    -0.60600
O56         O  0.47693808  0.57311320  0.52924623    -0.51500
C57         C  0.51974484  0.61633216  0.46639950     0.70500
O58         O  0.52539115  0.60750041  0.48062098    -0.46400
C59         C  0.48642732  0.57381322  0.39501286     0.75200
O60         O  0.51768440  0.57379885  0.48082589    -0.58300
O61         O  0.47858405  0.57605666  0.42802345    -0.48300
O62         O  0.49117000  0.55569202  0.49327575    -0.54700
C63         C  0.48639757  0.58092606  0.56373479     0.85400
O64         O  0.50379157  0.60794893  0.45997922    -0.56600
O65         O  0.50068276  0.57626325  0.40561865    -0.59900
In66       In  0.54233277  0.44485867  0.52341246     1.36900
C67         C  0.53205035  0.46654883  0.51682448     0.77800
O68         O  0.53981401  0.44613137  0.60038109    -0.60600
O69         O  0.56441234  0.45459451  0.57275212    -0.51500
C70         C  0.52466082  0.41088299  0.52968364     0.70500
O71         O  0.51765195  0.41936085  0.53087295    -0.46400
C72         C  0.55673872  0.45032841  0.43936960     0.75200
O73         O  0.52172477  0.45045317  0.51499354    -0.58300
O74         O  0.56539003  0.45522154  0.47613317    -0.48300
O75         O  0.54744712  0.47131254  0.52259128    -0.54700
C76         C  0.55535497  0.45211965  0.60863825     0.85400
O77         O  0.54069551  0.41990264  0.52397899    -0.56600
O78         O  0.54076575  0.44214597  0.44624906    -0.59900
In79       In  0.59590344  0.49964906  0.02526981     1.36900
C80         C  0.57247971  0.50757441  0.02665296     0.77800
O81         O  0.59910514  0.50361854  0.94894255    -0.60600
O82         O  0.58713093  0.47808343  0.97279972    -0.51500
C83         C  0.62941632  0.51635804  0.03336710     0.70500
O84         O  0.62182454  0.52422808  0.02947784    -0.46400
C85         C  0.59058037  0.48738108  0.11051618     0.75200
O86         O  0.58833531  0.51890802  0.02394666    -0.58300
O87         O  0.58703494  0.47784889  0.07479262    -0.48300
O88         O  0.56878787  0.49232733  0.02865394    -0.54700
C89         C  0.59217713  0.48796411  0.93831318     0.85400
O90         O  0.61990500  0.50022998  0.03011273    -0.56600
O91         O  0.59633878  0.50290455  0.10187656    -0.59900
In92       In  0.45145808  0.53179590  0.97595074     1.36900
C93         C  0.47511335  0.52463899  0.99111184     0.77800
O94         O  0.45874735  0.53349396  0.90116652    -0.60600
O95         O  0.45818298  0.55432763  0.93127938    -0.51500
C96         C  0.41779383  0.51252340  0.96130854     0.70500
O97         O  0.42726186  0.50665616  0.95568644    -0.46400
C98         C  0.45389604  0.54338329  0.06194433     0.75200
O99         O  0.45949654  0.51295659  0.98544193    -0.58300
O100        O  0.46065192  0.55341402  0.02798492    -0.48300
O101        O  0.47838815  0.53966119  0.98699038    -0.54700
C102        C  0.46066021  0.54788875  0.89529495     0.85400
O103        O  0.42558504  0.52789722  0.97555931    -0.56600
O104        O  0.44537283  0.52762905  0.05115903    -0.59900
In105      In  0.93350895  0.44799130  0.01699751     1.36900
C106        C  0.96619805  0.47346116  0.01267301     0.77800
O107        O  0.93513799  0.44542747  0.94038758    -0.60600
O108        O  0.91808899  0.45231357  0.96562444    -0.51500
C109        C  0.92030206  0.41465784  0.02780847     0.70500
O110        O  0.93619670  0.42557228  0.02562799    -0.46400
C111        C  0.92642477  0.45529168  0.10106642     0.75200
O112        O  0.96135939  0.45785698  0.01369593    -0.58300
O113        O  0.91929522  0.45600180  0.06507314    -0.48300
O114        O  0.95412262  0.47598274  0.01365222    -0.54700
C115        C  0.92455309  0.44934696  0.93048722     0.85400
O116        O  0.91119125  0.42081859  0.02280619    -0.56600
O117        O  0.93677113  0.45068832  0.09330871    -0.59900
In118      In  0.12283373  0.58751117  0.95872323     1.36900
C119        C  0.08993954  0.56711573  0.97757173     0.77800
O120        O  0.11178590  0.57203563  0.89415405    -0.60600
O121        O  0.13714350  0.57975319  0.90843229    -0.51500
C122        C  0.13618137  0.61985492  0.93064319     0.70500
O123        O  0.12037836  0.60867848  0.93181574    -0.46400
C124        C  0.13168073  0.58634159  0.04618907     0.75200
O125        O  0.09646328  0.58248672  0.96543655    -0.58300
O126        O  0.13543925  0.58013817  0.01196505    -0.48300
O127        O  0.10034050  0.56240612  0.98064071    -0.54700
C128        C  0.12467223  0.57190408  0.88092229     0.85400
O129        O  0.14528755  0.61456818  0.94492386    -0.56600
O130        O  0.12495804  0.59442458  0.03469245    -0.59900
In131      In  0.10689522  0.52684113  0.45612779     1.36900
C132        C  0.07379515  0.51501751  0.45827015     0.77800
O133        O  0.10513004  0.52103685  0.53137223    -0.60600
O134        O  0.11905868  0.54727486  0.51368312    -0.51500
C135        C  0.12317390  0.51059346  0.44809331     0.70500
O136        O  0.10702800  0.50273504  0.44752338    -0.46400
C137        C  0.11470241  0.54201875  0.37308217     0.75200
O138        O  0.07926380  0.50515254  0.45791379    -0.58300
O139        O  0.12150391  0.55043006  0.41019284    -0.48300
O140        O  0.08525790  0.53083772  0.45710531    -0.54700
C141        C  0.11398811  0.53633553  0.54566760     0.85400
O142        O  0.13078462  0.52669888  0.45181238    -0.56600
O143        O  0.10451376  0.52611419  0.37896728    -0.59900
In144      In  0.93063616  0.49795177  0.52181186     1.36900
C145        C  0.96002143  0.49975926  0.51284934     0.77800
O146        O  0.93490019  0.49938493  0.59735242    -0.60600
O147        O  0.91412125  0.47591832  0.57005941    -0.51500
C148        C  0.91956492  0.51897267  0.53558924     0.70500
O149        O  0.93532513  0.52429785  0.53535708    -0.46400
C150        C  0.92256263  0.48805033  0.43404793     0.75200
O151        O  0.95935669  0.51307172  0.51591469    -0.58300
O152        O  0.91459563  0.47806607  0.46752037    -0.48300
O153        O  0.94567160  0.48576460  0.51545059    -0.54700
C154        C  0.92265775  0.48423857  0.60554808     0.85400
O155        O  0.90978929  0.50307316  0.52706799    -0.56600
O156        O  0.93376886  0.50325918  0.44624159    -0.59900
In157      In  0.25712963  0.83565932  0.35506618     1.36900
C158        C  0.23402285  0.84404777  0.35303396     0.77800
O159        O  0.26209547  0.83819095  0.27849312    -0.60600
O160        O  0.24654035  0.81312310  0.30517320    -0.51500
C161        C  0.29057828  0.85464131  0.36885872     0.70500
O162        O  0.28212926  0.86130497  0.36033487    -0.46400
C163        C  0.24886492  0.82163423  0.43834183     0.75200
O164        O  0.24989645  0.85519624  0.34971927    -0.58300
O165        O  0.24933607  0.81356643  0.40288307    -0.48300
O166        O  0.23019620  0.82882503  0.35658112    -0.54700
C167        C  0.25292015  0.82231525  0.26968741     0.85400
O168        O  0.28198147  0.83844418  0.36837777    -0.56600
O169        O  0.25302207  0.83678106  0.43079574    -0.59900
In170      In  0.11726008  0.87426120  0.30867732     1.36900
C171        C  0.13947610  0.86531208  0.32415407     0.77800
O172        O  0.12179344  0.87158781  0.23396914    -0.60600
O173        O  0.12588443  0.89547163  0.25641250    -0.51500
C174        C  0.08369247  0.85642788  0.29611855     0.70500
O175        O  0.09208482  0.84939200  0.29950277    -0.46400
C176        C  0.12057969  0.88684682  0.39437545     0.75200
O177        O  0.12368150  0.85426069  0.31861010    -0.58300
O178        O  0.12757668  0.89652314  0.35979046    -0.48300
O179        O  0.14368583  0.88066660  0.32003728    -0.54700
C180        C  0.12588260  0.88641482  0.22277451     0.85400
O181        O  0.09259069  0.87259490  0.30043455    -0.56600
O182        O  0.11098498  0.87112805  0.38389465    -0.59900
In183      In  0.20718692  0.77896936  0.85284667     1.36900
C184        C  0.19892525  0.80182289  0.84157230     0.77800
O185        O  0.20511342  0.78374075  0.92751350    -0.60600
O186        O  0.22898695  0.78829476  0.90324298    -0.51500
C187        C  0.19005961  0.74509208  0.86075386     0.70500
O188        O  0.18272334  0.75329277  0.86198110    -0.46400
C189        C  0.21881246  0.78261139  0.76678879     0.75200
O190        O  0.18771064  0.78632064  0.85090623    -0.58300
O191        O  0.22882625  0.78886739  0.80107680    -0.48300
O192        O  0.21409909  0.80543798  0.83918755    -0.54700
C193        C  0.22027131  0.78864597  0.93711700     0.85400
O194        O  0.20608608  0.75425167  0.85476057    -0.56600
O195        O  0.20307313  0.77404224  0.77721425    -0.59900
In196      In  0.17463826  0.92385805  0.80753484     1.36900
C197        C  0.18002479  0.89839094  0.81135819     0.77800
O198        O  0.17663419  0.92660782  0.88488619    -0.60600
O199        O  0.15205344  0.91567567  0.85557545    -0.51500
C200        C  0.19590590  0.95790347  0.80081577     0.70500
O201        O  0.20102692  0.94776925  0.79658166    -0.46400
C202        C  0.16067462  0.91746043  0.72364018     0.75200
O203        O  0.19198452  0.91397390  0.81662759    -0.58300
O204        O  0.15277785  0.91720395  0.76015269    -0.48300
O205        O  0.16554958  0.89607713  0.80489886    -0.54700
C206        C  0.16082261  0.91993695  0.89206460     0.85400
O207        O  0.18008059  0.95054584  0.80913558    -0.56600
O208        O  0.17568240  0.92115639  0.73047961    -0.59900
In209      In  0.87062576  0.77264098  0.70059613     1.36900
C210        C  0.86245054  0.74028301  0.69122999     0.77800
O211        O  0.86702227  0.77272103  0.62445330    -0.60600
O212        O  0.89248954  0.78677219  0.64900666    -0.51500
C213        C  0.85143233  0.78610622  0.70828574     0.70500
O214        O  0.84514384  0.77012260  0.70697029    -0.46400
C215        C  0.88445547  0.78012270  0.78531911     0.75200
O216        O  0.85125584  0.74389681  0.69845167    -0.58300
O217        O  0.89283427  0.78866848  0.75005664    -0.48300
O218        O  0.87759930  0.75320037  0.68924931    -0.54700
C219        C  0.88275174  0.78176293  0.61422320     0.85400
O220        O  0.86758429  0.79510492  0.70571454    -0.56600
O221        O  0.86934070  0.76814755  0.77646441    -0.59900
In222      In  0.83777058  0.59163087  0.62190468     1.36900
C223        C  0.84254711  0.62262289  0.63293716     0.77800
O224        O  0.83700029  0.59672980  0.54695434    -0.60600
O225        O  0.81603038  0.57353769  0.57422448    -0.51500
C226        C  0.85930891  0.58084321  0.61015276     0.70500
O227        O  0.86408598  0.59636998  0.60550608    -0.46400
C228        C  0.82523440  0.58228268  0.70762859     0.75200
O229        O  0.85481465  0.62031342  0.63289940    -0.58300
O230        O  0.81613524  0.57513007  0.67213139    -0.48300
O231        O  0.82804177  0.60910124  0.62651512    -0.54700
C232        C  0.82271541  0.58309346  0.53938039     0.85400
O233        O  0.84378230  0.57114215  0.62166463    -0.56600
O234        O  0.84070356  0.59354236  0.69875427    -0.59900
In235      In  0.92598782  0.77824980  0.19395875     1.36900
C236        C  0.90254397  0.74537866  0.17806823     0.77800
O237        O  0.91980379  0.76991784  0.26753455    -0.60600
O238        O  0.91667648  0.78988431  0.24718938    -0.51500
C239        C  0.95898671  0.79477353  0.21269794     0.70500
O240        O  0.95081535  0.77956672  0.19673074    -0.46400
C241        C  0.92516161  0.78968113  0.11046338     0.75200
O242        O  0.91803323  0.75069636  0.18567777    -0.58300
O243        O  0.91806459  0.79157937  0.14597561    -0.48300
O244        O  0.89929100  0.75694312  0.17858843    -0.54700
C245        C  0.91561961  0.78033427  0.27961364     0.85400
O246        O  0.95041322  0.80163051  0.21685511    -0.56600
O247        O  0.93347486  0.78289459  0.11866683    -0.59900
In248      In  0.78637072  0.58693537  0.12690568     1.36900
C249        C  0.81066018  0.62012564  0.13725174     0.77800
O250        O  0.77751092  0.58061153  0.20064360    -0.60600
O251        O  0.79640940  0.57601665  0.17679758    -0.51500
C252        C  0.75363386  0.57283782  0.10927636     0.70500
O253        O  0.76342482  0.58864956  0.11903824    -0.46400
C254        C  0.79166074  0.57951337  0.04104519     0.75200
O255        O  0.79504574  0.61425857  0.14559938    -0.58300
O256        O  0.79232417  0.57178157  0.07581947    -0.48300
O257        O  0.81374563  0.60901995  0.12373595    -0.54700
C258        C  0.78749052  0.57594093  0.21066042     0.85400
O259        O  0.76043088  0.56418961  0.11111525    -0.56600
O260        O  0.78912781  0.59129939  0.05121446    -0.59900
In261      In  0.77447045  0.86466524  0.78129191     1.36900
C262        C  0.74219518  0.85427320  0.80252148     0.77800
O263        O  0.77651534  0.86175565  0.85649992    -0.60600
O264        O  0.78804348  0.88714630  0.83250284    -0.51500
C265        C  0.78900624  0.84674916  0.76632768     0.70500
O266        O  0.77315069  0.84025949  0.76116726    -0.46400
C267        C  0.78048933  0.87858420  0.69682029     0.75200
O268        O  0.74725770  0.84405020  0.80101449    -0.58300
O269        O  0.78926366  0.88702073  0.73187656    -0.48300
O270        O  0.75336718  0.86935058  0.79016985    -0.54700
C271        C  0.78417258  0.87745512  0.86712447     0.85400
O272        O  0.79725927  0.86231259  0.77912481    -0.56600
O273        O  0.76860538  0.86340647  0.70588163    -0.59900
In274      In  0.59833827  0.83158833  0.91214624     1.36900
C275        C  0.62890102  0.83573311  0.90411478     0.77800
O276        O  0.60120892  0.83360339  0.98904907    -0.60600
O277        O  0.58250416  0.80933028  0.96033117    -0.51500
C278        C  0.58407317  0.84992592  0.91631299     0.70500
O279        O  0.60007503  0.85684363  0.92084350    -0.46400
C280        C  0.59154625  0.82218968  0.82338412     0.75200
O281        O  0.62728555  0.84835063  0.91165617    -0.58300
O282        O  0.58369894  0.81164405  0.85601820    -0.48300
O283        O  0.61496830  0.82126811  0.90277230    -0.54700
C284        C  0.58969951  0.81810268  0.99664715     0.85400
O285        O  0.57568452  0.83382944  0.91060659    -0.56600
O286        O  0.60213297  0.83738520  0.83694216    -0.59900
In287      In  0.59392894  0.77702561  0.40617374     1.36900
C288        C  0.62671268  0.80176995  0.39261793     0.77800
O289        O  0.59148987  0.77206932  0.32954822    -0.60600
O290        O  0.57902291  0.78362969  0.35871367    -0.51500
C291        C  0.58025386  0.74375148  0.42223240     0.70500
O292        O  0.59611734  0.75425467  0.41603353    -0.46400
C293        C  0.58880979  0.78492263  0.49187384     0.75200
O294        O  0.62127131  0.78599640  0.38914451    -0.58300
O295        O  0.58070769  0.78520522  0.45750320    -0.48300
O296        O  0.61533083  0.80471766  0.40366756    -0.54700
C297        C  0.58288139  0.77857704  0.32215953     0.85400
O298        O  0.57140103  0.75024853  0.41845200    -0.56600
O299        O  0.59957226  0.78104426  0.48163078    -0.59900
In300      In  0.77937715  0.92062001  0.28753658     1.36900
C301        C  0.74765740  0.89540526  0.30639139     0.77800
O302        O  0.77176015  0.91384544  0.21351944    -0.60600
O303        O  0.79383197  0.91453423  0.23442003    -0.51500
C304        C  0.79207298  0.95349316  0.27132685     0.70500
O305        O  0.77620998  0.94243952  0.27421838    -0.46400
C306        C  0.79025853  0.91988586  0.37194569     0.75200
O307        O  0.75183295  0.91078993  0.30273205    -0.58300
O308        O  0.79425064  0.91459972  0.33604340    -0.48300
O309        O  0.75960709  0.89298223  0.29844602    -0.54700
C310        C  0.78395756  0.91224407  0.20154043     0.85400
O311        O  0.80140911  0.94774429  0.27882483    -0.56600
O312        O  0.78170445  0.92640841  0.36369050    -0.59900
In313      In  0.44097627  0.19740941  0.11807212     1.36900
C314        C  0.40947986  0.19110972  0.13004189     0.77800
O315        O  0.44273550  0.19449380  0.19401893    -0.60600
O316        O  0.45855688  0.21948765  0.16687446    -0.51500
C317        C  0.45234829  0.17660727  0.10430179     0.70500
O318        O  0.43701169  0.17113521  0.11547683    -0.46400
C319        C  0.44641718  0.21036741  0.03311819     0.75200
O320        O  0.41228477  0.17930053  0.12326774    -0.58300
O321        O  0.45549181  0.21919640  0.06735092    -0.48300
O322        O  0.42283114  0.20602342  0.13142145    -0.54700
C323        C  0.45371155  0.21010700  0.20234316     0.85400
O324        O  0.46173953  0.19270143  0.10005932    -0.56600
O325        O  0.43493631  0.19512941  0.04293551    -0.59900
In326      In  0.26086778  0.16353697  0.21108323     1.36900
C327        C  0.29263880  0.17091818  0.19630645     0.77800
O328        O  0.26764195  0.16579700  0.28601691    -0.60600
O329        O  0.24541655  0.14257479  0.26281471    -0.51500
C330        C  0.24774634  0.18262290  0.22667657     0.70500
O331        O  0.26321242  0.18912692  0.21440964    -0.46400
C332        C  0.24878675  0.14932737  0.12789646     0.75200
O333        O  0.28918940  0.18240809  0.19688445    -0.58300
O334        O  0.24636455  0.14044161  0.16323369    -0.48300
O335        O  0.27994408  0.15597665  0.20374120    -0.54700
C336        C  0.25498296  0.15111357  0.29656302     0.85400
O337        O  0.23914430  0.16649969  0.23014474    -0.56600
O338        O  0.25636350  0.16521881  0.13599879    -0.59900
In339      In  0.26096142  0.11495167  0.71090294     1.36900
C340        C  0.29355681  0.13870672  0.69405108     0.77800
O341        O  0.25750917  0.10784456  0.63542717    -0.60600
O342        O  0.24796602  0.12273638  0.66125596    -0.51500
C343        C  0.25021858  0.08238563  0.72814057     0.70500
O344        O  0.26569584  0.09451849  0.73114463    -0.46400
C345        C  0.25331645  0.12371147  0.79253601     0.75200
O346        O  0.28860031  0.12379012  0.70721065    -0.58300
O347        O  0.24266993  0.11704466  0.76001879    -0.48300
O348        O  0.28180710  0.14152883  0.68972557    -0.54700
C349        C  0.25049401  0.11588025  0.62622703     0.85400
O350        O  0.24034054  0.08694789  0.71570910    -0.56600
O351        O  0.26783302  0.12658533  0.78197827    -0.59900
In352      In  0.45011911  0.25217303  0.61936843     1.36900
C353        C  0.41755628  0.22862595  0.63608928     0.77800
O354        O  0.44312851  0.24549026  0.54534557    -0.60600
O355        O  0.46428780  0.24496288  0.56942957    -0.51500
C356        C  0.46503887  0.28486694  0.59851466     0.70500
O357        O  0.44922355  0.27547051  0.60782342    -0.46400
C358        C  0.45980865  0.25086131  0.70447488     0.75200
O359        O  0.42327398  0.24449640  0.63717401    -0.58300
O360        O  0.46178877  0.24327406  0.67026148    -0.48300
O361        O  0.42835377  0.22490223  0.62458526    -0.54700
C362        C  0.45506926  0.24320279  0.53534452     0.85400
O363        O  0.47325225  0.27765851  0.60156225    -0.56600
O364        O  0.45449997  0.26025823  0.69372490    -0.59900
In365      In  0.78271386  0.21160536  0.63363877     1.36900
C366        C  0.80634762  0.20433460  0.64899286     0.77800
O367        O  0.78948929  0.21028693  0.56032378    -0.60600
O368        O  0.79394797  0.23416042  0.58494953    -0.51500
C369        C  0.74923750  0.19243042  0.61673946     0.70500
O370        O  0.75744426  0.18619343  0.63151560    -0.46400
C371        C  0.78162853  0.22285715  0.71849344     0.75200
O372        O  0.79156657  0.19328236  0.63398966    -0.58300
O373        O  0.78836496  0.23291650  0.68454557    -0.48300
O374        O  0.80884418  0.21898582  0.65661373    -0.54700
C375        C  0.79499066  0.22569049  0.55131189     0.85400
O376        O  0.75827446  0.20837626  0.60961164    -0.56600
O377        O  0.77492644  0.20721662  0.70788464    -0.59900
In378      In  0.91828462  0.16472265  0.68533011     1.36900
C379        C  0.89523756  0.17368910  0.68229081     0.77800
O380        O  0.92310342  0.16858384  0.60961000    -0.60600
O381        O  0.90942235  0.14294096  0.63277374    -0.51500
C382        C  0.95229910  0.18253985  0.69450679     0.70500
O383        O  0.94418122  0.18971898  0.68796249    -0.46400
C384        C  0.91129745  0.15080798  0.76898273     0.75200
O385        O  0.91119034  0.18461328  0.68460222    -0.58300
O386        O  0.90884888  0.14197439  0.73235720    -0.48300
O387        O  0.89127510  0.15833463  0.68178966    -0.54700
C388        C  0.91555977  0.15293361  0.59856227     0.85400
O389        O  0.94297445  0.16637104  0.69579610    -0.56600
O390        O  0.91661197  0.16630488  0.76185923    -0.59900
In391      In  0.83331906  0.25673381  0.12748840     1.36900
C392        C  0.83570948  0.22946278  0.13311396     0.77800
O393        O  0.84049592  0.26149081  0.20164666    -0.60600
O394        O  0.81480213  0.25269445  0.18529768    -0.51500
C395        C  0.85496539  0.29018300  0.11367453     0.70500
O396        O  0.85949457  0.27955033  0.10915452    -0.46400
C397        C  0.81724681  0.24969100  0.04716525     0.75200
O398        O  0.84873080  0.24463679  0.13027760    -0.58300
O399        O  0.81018066  0.24973102  0.08515711    -0.48300
O400        O  0.82160176  0.22840184  0.13200052    -0.54700
C401        C  0.82577096  0.25688713  0.21670477     0.85400
O402        O  0.83951829  0.28359361  0.12567460    -0.56600
O403        O  0.83229574  0.25312220  0.05122437    -0.59900
In404      In  0.86540940  0.11190084  0.18309226     1.36900
C405        C  0.85574928  0.13383125  0.17111369     0.77800
O406        O  0.86443024  0.11557315  0.25952008    -0.60600
O407        O  0.88818516  0.12175732  0.23060908    -0.51500
C408        C  0.84783286  0.07824701  0.19437916     0.70500
O409        O  0.84090323  0.08681618  0.19649519    -0.46400
C410        C  0.87605867  0.11387206  0.09588858     0.75200
O411        O  0.84510054  0.11819654  0.18012118    -0.58300
O412        O  0.88650427  0.12062535  0.12916139    -0.48300
O413        O  0.87117810  0.13816880  0.16994351    -0.54700
C414        C  0.87977390  0.12054973  0.26699981     0.85400
O415        O  0.86364637  0.08687572  0.18493480    -0.56600
O416        O  0.86053404  0.10558504  0.10822112    -0.59900
In417      In  0.20574930  0.43921230  0.37247693     1.36900
C418        C  0.19772332  0.40715978  0.35831919     0.77800
O419        O  0.20131868  0.44104742  0.29704461    -0.60600
O420        O  0.22688978  0.45493570  0.32013804    -0.51500
C421        C  0.18668921  0.45173798  0.39629998     0.70500
O422        O  0.18017215  0.43623966  0.38396208    -0.46400
C423        C  0.22131615  0.44545481  0.45406036     0.75200
O424        O  0.18654816  0.41068179  0.36696080    -0.58300
O425        O  0.22880810  0.45439026  0.41861214    -0.48300
O426        O  0.21286581  0.42012131  0.35731780    -0.54700
C427        C  0.21695303  0.45040832  0.28602145     0.85400
O428        O  0.20282074  0.46080695  0.39454859    -0.56600
O429        O  0.20609628  0.43322271  0.44690895    -0.59900
In430      In  0.16674462  0.25791969  0.26980048     1.36900
C431        C  0.17552847  0.29017865  0.28153629     0.77800
O432        O  0.16875156  0.26297706  0.19395915    -0.60600
O433        O  0.14441225  0.24385145  0.22066415    -0.51500
C434        C  0.18506894  0.24363352  0.25924542     0.70500
O435        O  0.19176007  0.25966227  0.26249275    -0.46400
C436        C  0.15490096  0.24919480  0.35670059     0.75200
O437        O  0.18647477  0.28606380  0.28144191    -0.58300
O438        O  0.14499877  0.24355122  0.32216451    -0.48300
O439        O  0.16036172  0.27797874  0.27389544    -0.54700
C440        C  0.15316000  0.25210282  0.18544460     0.85400
O441        O  0.16888879  0.23492313  0.26001266    -0.56600
O442        O  0.17050013  0.25842568  0.34587193    -0.59900
In443      In  0.26037657  0.44715982  0.86922091     1.36900
C444        C  0.23398167  0.41585382  0.84912766     0.77800
O445        O  0.25207364  0.43974063  0.94203225    -0.60600
O446        O  0.25394775  0.46235130  0.91885944    -0.51500
C447        C  0.29277204  0.45897641  0.88993762     0.70500
O448        O  0.28110867  0.44319366  0.89079496    -0.46400
C449        C  0.26095008  0.45672558  0.78264049     0.75200
O450        O  0.24918618  0.41940204  0.85013404    -0.58300
O451        O  0.25573323  0.46190037  0.81614034    -0.48300
O452        O  0.23236957  0.42817564  0.86009081    -0.54700
C453        C  0.25015912  0.45194884  0.95167470     0.85400
O454        O  0.28784673  0.46865286  0.87795368    -0.56600
O455        O  0.26716276  0.44821616  0.79470913    -0.59900
In456      In  0.11290642  0.26157694  0.77307124     1.36900
C457        C  0.13647159  0.29465899  0.78695552     0.77800
O458        O  0.10756095  0.25955122  0.84958026    -0.60600
O459        O  0.12109138  0.24869780  0.82327779    -0.51500
C460        C  0.07920616  0.24559722  0.76048912     0.70500
O461        O  0.08866109  0.26148674  0.76933371    -0.46400
C462        C  0.12139476  0.25686112  0.68687412     0.75200
O463        O  0.12114926  0.28938975  0.77732937    -0.58300
O464        O  0.12057018  0.24800415  0.72084575    -0.48300
O465        O  0.13968586  0.28306495  0.78764162    -0.54700
C466        C  0.11536241  0.25233110  0.85890530     0.85400
O467        O  0.08702470  0.23790068  0.75937462    -0.56600
O468        O  0.11843546  0.26824796  0.69793702    -0.59900
C469        C  0.21907594  0.39869694  0.83663658    -0.11700
C470        C  0.22017027  0.38799019  0.80303543     0.03700
C471        C  0.20578857  0.37159524  0.79374930    -0.12300
C472        C  0.19012857  0.36579806  0.81656811     0.18600
C473        C  0.18880408  0.37676790  0.84841021    -0.09300
C474        C  0.20320739  0.39305828  0.85821094    -0.02300
H475        H  0.20682062  0.36328365  0.76866692     0.05100
C476        C  0.17581649  0.34779024  0.80966731     0.20600
H477        H  0.20206653  0.40123689  0.88350994     0.10300
C478        C  0.17588998  0.33499458  0.83434940    -0.15700
C479        C  0.16291000  0.31770257  0.82846710     0.03300
C480        C  0.14968943  0.31291145  0.79648815    -0.11000
C481        C  0.14933594  0.32580886  0.77282093    -0.01000
C482        C  0.16227785  0.34316772  0.77922887    -0.06200
H483        H  0.18605009  0.33852145  0.85868778     0.06300
H484        H  0.13916737  0.32236373  0.74860409     0.09700
Br485      Br  0.16770588  0.36983851  0.88013330    -0.05900
Br486      Br  0.24050163  0.39546666  0.76653091    -0.02800
Br487      Br  0.16333544  0.30143803  0.86763156     0.00000
Br488      Br  0.16110614  0.36008396  0.74544792    -0.04300
C489        C  0.11836030  0.24928615  0.90757149    -0.11700
C490        C  0.11418830  0.25591572  0.94691529     0.03700
C491        C  0.11923958  0.25465523  0.99131802    -0.12300
C492        C  0.12817228  0.24664762  0.99827240     0.18600
C493        C  0.13132765  0.23899681  0.95991153    -0.09300
C494        C  0.12663340  0.24052643  0.91513703    -0.02300
H495        H  0.11647348  0.26032209  0.02073317     0.05100
C496        C  0.13460705  0.24711884  0.04552404     0.20600
H497        H  0.12967160  0.23498396  0.88601762     0.10300
C498        C  0.12299754  0.23755986  0.08130285    -0.15700
C499        C  0.12855650  0.23872839  0.12702669     0.03300
C500        C  0.14616133  0.24968930  0.13772013    -0.11000
C501        C  0.15767329  0.25922993  0.10156670    -0.01000
C502        C  0.15207228  0.25812470  0.05620004    -0.06200
H503        H  0.10949205  0.22931725  0.07370287     0.06300
H504        H  0.17117993  0.26790102  0.10860605     0.09700
Br505      Br  0.14175897  0.22611945  0.96737294    -0.05900
Br506      Br  0.10198461  0.26725042  0.94366557    -0.02800
Br507      Br  0.11124601  0.22544308  0.17281279     0.00000
Br508      Br  0.16872420  0.27276407  0.01065191    -0.04300
C509        C  0.12528422  0.25402560  0.63813826    -0.11700
C510        C  0.12452632  0.26300448  0.59996197     0.03700
C511        C  0.12821600  0.25977229  0.55498738    -0.12300
C512        C  0.13266082  0.24770386  0.54645084     0.18600
C513        C  0.13337111  0.23869161  0.58403699    -0.09300
C514        C  0.12964360  0.24181983  0.62920844    -0.02300
H515        H  0.12782156  0.26691203  0.52637050     0.05100
C516        C  0.13758541  0.24567257  0.49847644     0.20600
H517        H  0.13022204  0.23467741  0.65748016     0.10300
C518        C  0.15466859  0.25122853  0.48890789    -0.15700
C519        C  0.16034152  0.25135988  0.44346253     0.03300
C520        C  0.14887633  0.24633305  0.40591434    -0.11000
C521        C  0.13154558  0.23991010  0.41593658    -0.01000
C522        C  0.12586263  0.23945634  0.46168017    -0.06200
H523        H  0.16374964  0.25581536  0.51697974     0.06300
H524        H  0.12243953  0.23568558  0.38804293     0.09700
Br525      Br  0.13902687  0.22172508  0.57506607    -0.05900
Br526      Br  0.11851805  0.27984818  0.60535554    -0.02800
Br527      Br  0.18389490  0.25840223  0.43614462     0.00000
Br528      Br  0.10194902  0.23009648  0.47239019    -0.04300
C529        C  0.24408127  0.45366310  0.99816465    -0.11700
C530        C  0.23206552  0.43899055  0.02349421     0.03700
C531        C  0.22799672  0.44073181  0.06940585    -0.12300
C532        C  0.23542567  0.45695089  0.09088814     0.18600
C533        C  0.24681555  0.47167725  0.06497490    -0.09300
C534        C  0.25103970  0.46996172  0.01895841    -0.02300
H535        H  0.21902263  0.42932402  0.08862148     0.05100
C536        C  0.23132349  0.45790052  0.14062903     0.20600
H537        H  0.26012082  0.48135187  0.99986048     0.10300
C538        C  0.24390899  0.46271337  0.17426320    -0.15700
C539        C  0.23985032  0.46127336  0.22184717     0.03300
C540        C  0.22276985  0.45474911  0.23669791    -0.11000
C541        C  0.21042115  0.45075433  0.20271026    -0.01000
C542        C  0.21455612  0.45229251  0.15530910    -0.06200
H543        H  0.25684381  0.46698114  0.16339457     0.06300
H544        H  0.19730670  0.44595907  0.21291116     0.09700
Br545      Br  0.25662447  0.49434691  0.09065576    -0.05900
Br546      Br  0.22010796  0.41624965  0.99659915    -0.02800
Br547      Br  0.25813520  0.46744317  0.26389736     0.00000
Br548      Br  0.19680692  0.44639380  0.11165664    -0.04300
C549        C  0.22916771  0.44895740  0.50083044    -0.11700
C550        C  0.24682508  0.46086710  0.50906707     0.03700
C551        C  0.25320240  0.46358179  0.55432832    -0.12300
C552        C  0.24230959  0.45472000  0.59187933     0.18600
C553        C  0.22478450  0.44295255  0.58387142    -0.09300
C554        C  0.21839089  0.44012660  0.53887600    -0.02300
H555        H  0.26676055  0.47252817  0.56022472     0.05100
C556        C  0.24936699  0.45704235  0.63899981     0.20600
H557        H  0.20481771  0.43099181  0.53380617     0.10300
C558        C  0.24998090  0.46937541  0.66964806    -0.15700
C559        C  0.25455300  0.47026711  0.71628841     0.03300
C560        C  0.25858408  0.45861918  0.73278605    -0.11000
C561        C  0.25877226  0.44692456  0.70107257    -0.01000
C562        C  0.25412837  0.44599835  0.65487780    -0.06200
H563        H  0.24643037  0.47800622  0.65755454     0.06300
H564        H  0.26175520  0.43779972  0.71264551     0.09700
Br565      Br  0.20913157  0.43034904  0.63359680    -0.05900
Br566      Br  0.26306925  0.47355194  0.46052228    -0.02800
Br567      Br  0.25516553  0.48766738  0.75522565     0.00000
Br568      Br  0.25343002  0.42865959  0.61542238    -0.04300
C569        C  0.19382982  0.38950796  0.34944857    -0.11700
C570        C  0.17710959  0.37454837  0.35245723     0.03700
C571        C  0.17446345  0.35839641  0.34225780    -0.12300
C572        C  0.18816617  0.35678043  0.32932326     0.18600
C573        C  0.20477570  0.37153749  0.32686994    -0.09300
C574        C  0.20749117  0.38765466  0.33688753    -0.02300
H575        H  0.16162841  0.34701287  0.34431297     0.05100
C576        C  0.18496777  0.33968290  0.31742627     0.20600
H577        H  0.22043113  0.39883278  0.33434625     0.10300
C578        C  0.18055395  0.33336799  0.27180919    -0.15700
C579        C  0.17784043  0.31738690  0.25913333     0.03300
C580        C  0.17977787  0.30765020  0.29219935    -0.11000
C581        C  0.18435748  0.31403840  0.33766509    -0.01000
C582        C  0.18680132  0.32988089  0.35054071    -0.06200
H583        H  0.17925060  0.34089815  0.24609018     0.06300
H584        H  0.18554145  0.30645787  0.36350330     0.09700
Br585      Br  0.22409752  0.37025814  0.30920328    -0.05900
Br586      Br  0.15730324  0.37497780  0.37035374    -0.02800
Br587      Br  0.17194589  0.30951667  0.19616004     0.00000
Br588      Br  0.19218383  0.33745011  0.41386491    -0.04300
C589        C  0.85075309  0.14624639  0.16307947    -0.11700
C590        C  0.85950454  0.15938861  0.13021358     0.03700
C591        C  0.85570153  0.17199812  0.12665149    -0.12300
C592        C  0.84331645  0.17190695  0.15553852     0.18600
C593        C  0.83398994  0.15835592  0.18691339    -0.09300
C594        C  0.83765578  0.14557087  0.19019247    -0.02300
H595        H  0.86264255  0.18212185  0.10163151     0.05100
C596        C  0.84081467  0.18637803  0.15267859     0.20600
H597        H  0.83077561  0.13551280  0.21540517     0.10300
C598        C  0.82554332  0.18355845  0.13490412    -0.15700
C599        C  0.82343661  0.19727789  0.12845281     0.03300
C600        C  0.83699539  0.21430692  0.13900081    -0.11000
C601        C  0.85216829  0.21697610  0.15726322    -0.01000
C602        C  0.85405372  0.20322356  0.16467608    -0.06200
H603        H  0.81532176  0.17065867  0.12539046     0.06300
H604        H  0.86254212  0.22980925  0.16669546     0.09700
Br605      Br  0.81706282  0.15744749  0.22821098    -0.05900
Br606      Br  0.87635162  0.16048813  0.08802020    -0.02800
Br607      Br  0.80196570  0.19171924  0.10353435     0.00000
Br608      Br  0.87473398  0.20803475  0.19309638    -0.04300
C609        C  0.97108937  0.19201418  0.70177282    -0.11700
C610        C  0.98275584  0.20810928  0.68169572     0.03700
C611        C  0.00034956  0.21647227  0.69053011    -0.12300
C612        C  0.00665333  0.20909945  0.71921029     0.18600
C613        C  0.99500139  0.19310852  0.73949103    -0.09300
C614        C  0.97748893  0.18465736  0.73022830    -0.02300
H615        H  0.00917875  0.22876168  0.67478718     0.05100
C616        C  0.02530282  0.21853421  0.72882505     0.20600
H617        H  0.96875304  0.17242113  0.74642973     0.10300
C618        C  0.03297793  0.23390342  0.75478956    -0.15700
C619        C  0.05043881  0.24297789  0.76568786     0.03300
C620        C  0.06061128  0.23661647  0.75057178    -0.11000
C621        C  0.05288311  0.22130472  0.72414763    -0.01000
C622        C  0.03551246  0.21240687  0.71278819    -0.06200
H623        H  0.02525155  0.23876647  0.76719202     0.06300
H624        H  0.06048478  0.21634959  0.71136856     0.09700
Br625      Br  0.00221319  0.18270002  0.78220251    -0.05900
Br626      Br  0.97563041  0.21893524  0.64022692    -0.02800
Br627      Br  0.05926428  0.26347126  0.80294998     0.00000
Br628      Br  0.02653442  0.19236188  0.67361975    -0.04300
C629        C  0.91338155  0.14692105  0.54940460    -0.11700
C630        C  0.92141178  0.15852252  0.51223637     0.03700
C631        C  0.91674411  0.15272285  0.46649486    -0.12300
C632        C  0.90447608  0.13545976  0.45641870     0.18600
C633        C  0.89780933  0.12357161  0.49282582    -0.09300
C634        C  0.90210623  0.12936541  0.53884906    -0.02300
H635        H  0.92233943  0.16189362  0.43857567     0.05100
C636        C  0.89795677  0.13057044  0.40833530     0.20600
H637        H  0.89619497  0.12012168  0.56652874     0.10300
C638        C  0.90897818  0.13206183  0.37202092    -0.15700
C639        C  0.90349634  0.12878692  0.32574802     0.03300
C640        C  0.88671925  0.12426109  0.31500844    -0.11000
C641        C  0.87579633  0.12281283  0.35175958    -0.01000
C642        C  0.88122419  0.12589772  0.39777748    -0.06200
H643        H  0.92192413  0.13580607  0.37975745     0.06300
H644        H  0.86288065  0.11935578  0.34480943     0.09700
Br645      Br  0.88275454  0.09937364  0.48117539    -0.05900
Br646      Br  0.93880169  0.18247456  0.52054092    -0.02800
Br647      Br  0.91956769  0.13052240  0.27969840     0.00000
Br648      Br  0.86545700  0.12436121  0.44467826    -0.04300
C649        C  0.88143819  0.11594075  0.04634364    -0.11700
C650        C  0.87018384  0.11362049  0.01031858     0.03700
C651        C  0.87613951  0.11710027  0.96449627    -0.12300
C652        C  0.89315014  0.12289977  0.95330034     0.18600
C653        C  0.90421862  0.12457171  0.98850917    -0.09300
C654        C  0.89836397  0.12115543  0.03462551    -0.02300
H655        H  0.86764103  0.11605081  0.93761418     0.05100
C656        C  0.89953508  0.12953608  0.90618856     0.20600
H657        H  0.90715027  0.12282962  0.06143527     0.10300
C658        C  0.90955073  0.14732960  0.90049591    -0.15700
C659        C  0.91411298  0.15448823  0.85642093     0.03300
C660        C  0.90813069  0.14369139  0.81644159    -0.11000
C661        C  0.89876451  0.12577135  0.82237602    -0.01000
C662        C  0.89455097  0.11868032  0.86684347    -0.06200
H663        H  0.91362694  0.15575865  0.93076841     0.06300
H664        H  0.89446350  0.11722098  0.79239981     0.09700
Br665      Br  0.92741230  0.13160133  0.97473676    -0.05900
Br666      Br  0.84693757  0.10725024  0.02063327    -0.02800
Br667      Br  0.92896024  0.17908704  0.85444486     0.00000
Br668      Br  0.88232558  0.09421093  0.87270359    -0.04300
C669        C  0.80165300  0.23287643  0.50459095    -0.11700
C670        C  0.80765093  0.22526273  0.47310209     0.03700
C671        C  0.81219513  0.23127491  0.42781170    -0.12300
C672        C  0.81132622  0.24507474  0.41293306     0.18600
C673        C  0.80605563  0.25316906  0.44466859    -0.09300
C674        C  0.80130265  0.24707010  0.49006792    -0.02300
H675        H  0.81640414  0.22505779  0.40378571     0.05100
C676        C  0.81558198  0.25035220  0.36381862     0.20600
H677        H  0.79694775  0.25322687  0.51377568     0.10300
C678        C  0.80264909  0.24785515  0.33396607    -0.15700
C679        C  0.80570493  0.25063556  0.28615099     0.03300
C680        C  0.82198953  0.25581762  0.26733353    -0.11000
C681        C  0.83508062  0.25907671  0.29788849    -0.01000
C682        C  0.83201614  0.25638371  0.34546039    -0.06200
H683        H  0.78995575  0.24324269  0.34778391     0.06300
H684        H  0.84775892  0.26330893  0.28468966     0.09700
Br685      Br  0.80542737  0.27271557  0.42770469    -0.05900
Br686      Br  0.81068556  0.20707897  0.48964941    -0.02800
Br687      Br  0.78699398  0.24688273  0.24918105     0.00000
Br688      Br  0.85073363  0.26100437  0.38383905    -0.04300
C689        C  0.80910358  0.24611918  0.00094097    -0.11700
C690        C  0.79241973  0.24255088  0.99387941     0.03700
C691        C  0.78593252  0.23968220  0.94873003    -0.12300
C692        C  0.79570767  0.24013385  0.91036208     0.18600
C693        C  0.81216093  0.24342231  0.91744221    -0.09300
C694        C  0.81870187  0.24644278  0.96211494    -0.02300
H695        H  0.77316575  0.23694581  0.94352199     0.05100
C696        C  0.78862845  0.23645199  0.86301665     0.20600
H697        H  0.83142282  0.24895012  0.96631989     0.10300
C698        C  0.79608897  0.24954425  0.83009976    -0.15700
C699        C  0.79302192  0.24575107  0.78265466     0.03300
C700        C  0.78230485  0.22847180  0.76756308    -0.11000
C701        C  0.77349634  0.21568424  0.80123332    -0.01000
C702        C  0.77655686  0.21954236  0.84852307    -0.06200
H703        H  0.80522262  0.26265182  0.84119745     0.06300
H704        H  0.76488002  0.20239008  0.79076692     0.09700
Br705      Br  0.82601676  0.24321032  0.86729144    -0.05900
Br706      Br  0.77768550  0.24117255  0.04364015    -0.02800
Br707      Br  0.80497312  0.26469084  0.74104058     0.00000
Br708      Br  0.76523467  0.20101827  0.89160924    -0.04300
C709        C  0.81978796  0.20050600  0.65525709    -0.11700
C710        C  0.83318498  0.20943897  0.68762829     0.03700
C711        C  0.84567302  0.20539053  0.69117452    -0.12300
C712        C  0.84526942  0.19267946  0.66260345     0.18600
C713        C  0.83198572  0.18390218  0.63014765    -0.09300
C714        C  0.81939938  0.18775729  0.62696088    -0.02300
H715        H  0.85565614  0.21206345  0.71672519     0.05100
C716        C  0.85830111  0.18819360  0.66844462     0.20600
H717        H  0.80941612  0.18094802  0.60146845     0.10300
C718        C  0.85302697  0.17183278  0.68442007    -0.15700
C719        C  0.86474624  0.16689536  0.68978348     0.03300
C720        C  0.88232522  0.17850799  0.67924549    -0.11000
C721        C  0.88762001  0.19504987  0.66421763    -0.01000
C722        C  0.87581523  0.19990180  0.65865039    -0.06200
H723        H  0.83965685  0.16282338  0.69281682     0.06300
H724        H  0.90095643  0.20415991  0.65574301     0.09700
Br725      Br  0.83078807  0.16698128  0.58792587    -0.05900
Br726      Br  0.83473303  0.22662349  0.72965799    -0.02800
Br727      Br  0.85573141  0.14429823  0.71336657     0.00000
Br728      Br  0.88412145  0.22237536  0.63542235    -0.04300
C729        C  0.31175632  0.15187400  0.68599792    -0.11700
C730        C  0.31744196  0.16295292  0.64777229     0.03700
C731        C  0.33494886  0.17512126  0.64173348    -0.12300
C732        C  0.34692153  0.17652211  0.67339670     0.18600
C733        C  0.34119805  0.16558121  0.71179163    -0.09300
C734        C  0.32375117  0.15327514  0.71750841    -0.02300
H735        H  0.33928972  0.18347705  0.61198510     0.05100
C736        C  0.36528609  0.18939129  0.66532769     0.20600
H737        H  0.31949639  0.14484977  0.74708275     0.10300
C738        C  0.37382905  0.20401796  0.69415157    -0.15700
C739        C  0.39096730  0.21688965  0.68558214     0.03300
C740        C  0.39965573  0.21531048  0.64707798    -0.11000
C741        C  0.39127847  0.20039746  0.61933268    -0.01000
C742        C  0.37423347  0.18746968  0.62819863    -0.06200
H743        H  0.36712201  0.20540140  0.72344484     0.06300
H744        H  0.39799299  0.19885670  0.59033614     0.09700
Br745      Br  0.35667085  0.16664251  0.75673228    -0.05900
Br746      Br  0.30209759  0.16130845  0.60129563    -0.02800
Br747      Br  0.40228438  0.23561126  0.72936062     0.00000
Br748      Br  0.36385240  0.16719526  0.58963094    -0.04300
C749        C  0.24005570  0.19288049  0.23514158    -0.11700
C750        C  0.22815767  0.18905363  0.27158270     0.03700
C751        C  0.21993809  0.19801966  0.27585701    -0.12300
C752        C  0.22337583  0.21082695  0.24427409     0.18600
C753        C  0.23566495  0.21505534  0.20892940    -0.09300
C754        C  0.24396488  0.20616980  0.20471690    -0.02300
H755        H  0.21069280  0.19487226  0.30359382     0.05100
C756        C  0.21359931  0.21922134  0.24773789     0.20600
H757        H  0.25304015  0.20923969  0.17660542     0.10300
C758        C  0.22086106  0.23527766  0.26989123    -0.15700
C759        C  0.21188116  0.24349638  0.27377625     0.03300
C760        C  0.19524311  0.23559981  0.25519389    -0.11000
C761        C  0.18800190  0.21942632  0.23319863    -0.01000
C762        C  0.19706867  0.21129877  0.22921616    -0.06200
H763        H  0.23352456  0.24137281  0.28455190     0.06300
H764        H  0.17529839  0.21313256  0.21866311     0.09700
Br765      Br  0.24090915  0.23234777  0.16443610    -0.05900
Br766      Br  0.22319371  0.17225202  0.31759721    -0.02800
Br767      Br  0.22273452  0.26494191  0.30743733     0.00000
Br768      Br  0.18661410  0.18949847  0.19751453    -0.04300
C769        C  0.25200818  0.14461668  0.34468709    -0.11700
C770        C  0.23548797  0.13279091  0.36290314     0.03700
C771        C  0.23357219  0.12726945  0.40888966    -0.12300
C772        C  0.24787744  0.13335264  0.43729941     0.18600
C773        C  0.26429902  0.14511520  0.41918792    -0.09300
C774        C  0.26623785  0.15072669  0.37354240    -0.02300
H775        H  0.22086944  0.11829499  0.42266163     0.05100
C776        C  0.24571911  0.12737415  0.48571342     0.20600
H777        H  0.27901460  0.15976719  0.36034354     0.10300
C778        C  0.24577901  0.11259469  0.49468279    -0.15700
C779        C  0.24636719  0.10799018  0.54026669     0.03300
C780        C  0.24686878  0.11829894  0.57802788    -0.11000
C781        C  0.24570991  0.13248734  0.56881673    -0.01000
C782        C  0.24525864  0.13711004  0.52322253    -0.06200
H783        H  0.24599573  0.10495738  0.46602445     0.06300
H784        H  0.24605463  0.14057964  0.59704577     0.09700
Br785      Br  0.28449972  0.15366966  0.45552649    -0.05900
Br786      Br  0.21503723  0.12449297  0.32786964    -0.02800
Br787      Br  0.24661323  0.08758020  0.54809405     0.00000
Br788      Br  0.24504665  0.15741486  0.51367682    -0.04300
C789        C  0.24949293  0.12747247  0.83989911    -0.11700
C790        C  0.23272153  0.11929039  0.85888414     0.03700
C791        C  0.23033923  0.12177753  0.90594366    -0.12300
C792        C  0.24439577  0.13236375  0.93447748     0.18600
C793        C  0.26100459  0.14102780  0.91522506    -0.09300
C794        C  0.26342761  0.13853881  0.86853625    -0.02300
H795        H  0.21751678  0.11515402  0.92058389     0.05100
C796        C  0.24187749  0.13409912  0.98458850     0.20600
H797        H  0.27638434  0.14508434  0.85481703     0.10300
C798        C  0.24579837  0.12549175  0.01625643    -0.15700
C799        C  0.24679631  0.12928328  0.06379454     0.03300
C800        C  0.24417499  0.14219698  0.08016358    -0.11000
C801        C  0.23924149  0.15004359  0.04856293    -0.01000
C802        C  0.23777204  0.14584417  0.00120218    -0.06200
H803        H  0.24891994  0.11636466  0.00361384     0.06300
H804        H  0.23699529  0.15984847  0.06058148     0.09700
Br805      Br  0.28084812  0.15628451  0.95161634    -0.05900
Br806      Br  0.21261377  0.10378072  0.82382274    -0.02800
Br807      Br  0.25365022  0.11775398  0.10353874     0.00000
Br808      Br  0.23100792  0.15702831  0.95993890    -0.04300
C809        C  0.45938840  0.21682270  0.25029375    -0.11700
C810        C  0.45801572  0.20607564  0.28652146     0.03700
C811        C  0.46002696  0.21182166  0.33272217    -0.12300
C812        C  0.46346272  0.22819790  0.34381446     0.18600
C813        C  0.46641848  0.23949315  0.30765065    -0.09300
C814        C  0.46443675  0.23379521  0.26134893    -0.02300
H815        H  0.45807408  0.20316527  0.36024011     0.05100
C816        C  0.46174387  0.23234920  0.39281421     0.20600
H817        H  0.46584921  0.24235506  0.23418168     0.10300
C818        C  0.47427891  0.23577236  0.42537104    -0.15700
C819        C  0.47247521  0.23918569  0.47217583     0.03300
C820        C  0.45776465  0.23905699  0.48705202    -0.11000
C821        C  0.44519290  0.23534442  0.45419083    -0.01000
C822        C  0.44702089  0.23195296  0.40780008    -0.06200
H823        H  0.48554978  0.23586399  0.41425232     0.06300
H824        H  0.43371844  0.23498670  0.46454583     0.09700
Br825      Br  0.47220547  0.26247223  0.32011358    -0.05900
Br826      Br  0.45324531  0.18335040  0.27557529    -0.02800
Br827      Br  0.49071057  0.24422604  0.51316578     0.00000
Br828      Br  0.42867107  0.22623513  0.36647336    -0.04300
C829        C  0.44915316  0.21714809  0.98525949    -0.11700
C830        C  0.43692936  0.20834323  0.94974479     0.03700
C831        C  0.44054479  0.21475739  0.90463522    -0.12300
C832        C  0.45601250  0.23003274  0.89381573     0.18600
C833        C  0.46786558  0.23923133  0.92938444    -0.09300
C834        C  0.46446973  0.23270077  0.97442743    -0.02300
H835        H  0.43109733  0.20789766  0.87783419     0.05100
C836        C  0.45908207  0.23645995  0.84565753     0.20600
H837        H  0.47393683  0.23979282  0.00100093     0.10300
C838        C  0.45911217  0.25127232  0.83657985    -0.15700
C839        C  0.46043340  0.25692310  0.79117312     0.03300
C840        C  0.46176451  0.24760486  0.75343147    -0.11000
C841        C  0.46251493  0.23320658  0.76296139    -0.01000
C842        C  0.46099218  0.22750188  0.80838659    -0.06200
H843        H  0.45760262  0.25822410  0.86501306     0.06300
H844        H  0.46342220  0.22578411  0.73478500     0.09700
Br845      Br  0.48896721  0.26065649  0.91794388    -0.05900
Br846      Br  0.41463364  0.18803302  0.96010806    -0.02800
Br847      Br  0.45989432  0.27720756  0.78398574     0.00000
Br848      Br  0.46105358  0.20708270  0.81751713    -0.04300
C849        C  0.39210140  0.18796366  0.13673771    -0.11700
C850        C  0.37736355  0.17386728  0.11602119     0.03700
C851        C  0.36120323  0.17135167  0.12460441    -0.12300
C852        C  0.35946907  0.18286928  0.15297032     0.18600
C853        C  0.37418815  0.19711973  0.17265281     0.01500
C854        C  0.39028368  0.19958965  0.16442743    -0.02300
H855        H  0.34998044  0.16047641  0.10879433     0.05100
C856        C  0.34223307  0.17969330  0.16288433     0.20600
H857        H  0.40140589  0.21053775  0.18037188     0.10300
C858        C  0.33221837  0.16846875  0.19853063    -0.15700
C859        C  0.31623592  0.16576720  0.21052515     0.03300
C860        C  0.30997821  0.17438771  0.18664024    -0.11000
C861        C  0.32010529  0.18576344  0.15123432    -0.01000
C862        C  0.33605396  0.18835265  0.13907084    -0.06200
H863        H  0.33698472  0.16198319  0.21758351     0.06300
H864        H  0.31543098  0.19234685  0.13225004     0.09700
Br865      Br  0.37283848  0.21339063  0.21178273    -0.05900
Br866      Br  0.37862126  0.15838362  0.07318655    -0.02800
Br867      Br  0.30401137  0.15100667  0.26180779     0.00000
Br868      Br  0.34890516  0.20362010  0.08933751    -0.04300
C869        C  0.79934363  0.97167903  0.25958461    -0.11700
C870        C  0.78982817  0.97715767  0.23657723     0.03700
C871        C  0.79763495  0.99443575  0.22491303    -0.12300
C872        C  0.81485816  0.00641156  0.23513026     0.18600
C873        C  0.82433065  0.00105897  0.25827333    -0.09300
C874        C  0.81657600  0.98383769  0.27016563    -0.02300
H875        H  0.79030887  0.99852651  0.20709209     0.05100
C876        C  0.82262594  0.02451792  0.22231661     0.20600
H877        H  0.82409796  0.97995767  0.28790387     0.10300
C878        C  0.81805688  0.03457008  0.24763160    -0.15700
C879        C  0.82578577  0.05201055  0.23822041     0.03300
C880        C  0.83840644  0.05965085  0.20301108    -0.11000
C881        C  0.84269596  0.04945256  0.17703366    -0.01000
C882        C  0.83470997  0.03193552  0.18595476    -0.06200
H883        H  0.80872164  0.02889822  0.27554525     0.06300
H884        H  0.85222257  0.05511215  0.14952053     0.09700
Br885      Br  0.84779213  0.01686818  0.27510270    -0.05900
Br886      Br  0.76654255  0.96180649  0.21737886    -0.02800
Br887      Br  0.81955312  0.06493700  0.27712477     0.00000
Br888      Br  0.84035891  0.01852394  0.14715622    -0.04300
C889        C  0.64480331  0.81554144  0.38288443    -0.11700
C890        C  0.65173584  0.83295305  0.39537783     0.03700
C891        C  0.66857339  0.84548244  0.38269454    -0.12300
C892        C  0.67876449  0.84120145  0.35694852     0.18600
C893        C  0.67209387  0.82378858  0.34581311    -0.09300
C894        C  0.65531082  0.81119627  0.35885586    -0.02300
H895        H  0.67375503  0.85873210  0.39286393     0.05100
C896        C  0.69636627  0.85506603  0.34305552     0.20600
H897        H  0.65033303  0.79795833  0.34905871     0.10300
C898        C  0.71035740  0.85454319  0.35800431    -0.15700
C899        C  0.72713610  0.86740929  0.34598594     0.03300
C900        C  0.73018384  0.88138751  0.31923207    -0.11000
C901        C  0.71625739  0.88216416  0.30524749    -0.01000
C902        C  0.69946179  0.86913484  0.31656618    -0.06200
H903        H  0.70821743  0.84412678  0.37959919     0.06300
H904        H  0.71842880  0.89284426  0.28475685     0.09700
Br905      Br  0.68496712  0.81644999  0.31109691    -0.05900
Br906      Br  0.63933959  0.84074537  0.43054715    -0.02800
Br907      Br  0.74529907  0.86566294  0.36982897     0.00000
Br908      Br  0.68132599  0.87106363  0.29357544    -0.04300
C909        C  0.58554363  0.81113080  0.04458084    -0.11700
C910        C  0.57059272  0.79516436  0.05610971     0.03700
C911        C  0.56783655  0.78924549  0.10190135    -0.12300
C912        C  0.57962232  0.79900757  0.13696083     0.18600
C913        C  0.59438154  0.81497950  0.12565332    -0.09300
C914        C  0.59716806  0.82090517  0.08012907    -0.02300
H915        H  0.55649771  0.77687615  0.11015343     0.05100
C916        C  0.57736118  0.79175791  0.18397935     0.20600
H917        H  0.60876595  0.83313195  0.07238985     0.10300
C918        C  0.58103835  0.77913831  0.19020519    -0.15700
C919        C  0.58171316  0.77373715  0.23461644     0.03300
C920        C  0.57887941  0.78121423  0.27439323    -0.11000
C921        C  0.57385332  0.79289062  0.26772587    -0.01000
C922        C  0.57302831  0.79812401  0.22305586    -0.06200
H923        H  0.58401146  0.77387058  0.16027175     0.06300
H924        H  0.57126409  0.79856664  0.29741103     0.09700
Br925      Br  0.61165560  0.82876936  0.17069169    -0.05900
Br926      Br  0.55326273  0.78093713  0.01165072    -0.02800
Br927      Br  0.58670536  0.75618037  0.23766300     0.00000
Br928      Br  0.56635930  0.81429322  0.21694965    -0.04300
C929        C  0.58890430  0.81712789  0.77332866    -0.11700
C930        C  0.60060573  0.82782165  0.73831922     0.03700
C931        C  0.59813011  0.82207354  0.69211999    -0.12300
C932        C  0.58428148  0.80577686  0.67949868     0.18600
C933        C  0.57240657  0.79524185  0.71376338    -0.09300
C934        C  0.57474130  0.80093547  0.76013520    -0.02300
H935        H  0.60746242  0.83013670  0.66600581     0.05100
C936        C  0.58369524  0.79937765  0.63154526     0.20600
H937        H  0.56554938  0.79254333  0.78603468     0.10300
C938        C  0.58884189  0.78783052  0.62375417    -0.15700
C939        C  0.59011674  0.78260395  0.57880581     0.03300
C940        C  0.58626215  0.78905785  0.54021547    -0.11000
C941        C  0.58049798  0.80017061  0.54824929    -0.01000
C942        C  0.57931251  0.80542688  0.59345450    -0.06200
H943        H  0.59216338  0.78306145  0.65290757     0.06300
H944        H  0.57736651  0.80516998  0.51927969     0.09700
Br945      Br  0.55291613  0.77295085  0.69849768    -0.05900
Br946      Br  0.62101897  0.84990694  0.75044495    -0.02800
Br947      Br  0.59669814  0.76620674  0.57325831     0.00000
Br948      Br  0.57172119  0.82089283  0.60174715    -0.04300
C949        C  0.78604456  0.90802616  0.15265249    -0.11700
C950        C  0.80151196  0.91053980  0.13442463     0.03700
C951        C  0.80253692  0.90655781  0.08760110    -0.12300
C952        C  0.78847102  0.90029970  0.05813799     0.18600
C953        C  0.77316568  0.89797349  0.07604374    -0.09300
C954        C  0.77205005  0.90178969  0.12266536    -0.02300
H955        H  0.81438275  0.90839534  0.07404710     0.05100
C956        C  0.78946809  0.89530916  0.00946771     0.20600
H957        H  0.76006412  0.89980980  0.13549405     0.10300
C958        C  0.78419227  0.87827825  0.99971129    -0.15700
C959        C  0.78301425  0.87234745  0.95398759     0.03300
C960        C  0.78729798  0.88367358  0.91637465    -0.11000
C961        C  0.79323116  0.90097376  0.92656599    -0.01000
C962        C  0.79424693  0.90677932  0.97257108    -0.06200
H963        H  0.78045044  0.86937975  0.02794316     0.06300
H964        H  0.79651341  0.90990352  0.89868383     0.09700
Br965      Br  0.75340693  0.88957819  0.03791290    -0.05900
Br966      Br  0.82189837  0.92006365  0.17056313    -0.02800
Br967      Br  0.77486713  0.84841133  0.94671166     0.00000
Br968      Br  0.80144058  0.93025007  0.98355800    -0.04300
C969        C  0.79396121  0.91731487  0.41999217    -0.11700
C970        C  0.79237994  0.92597429  0.45902845     0.03700
C971        C  0.79294335  0.92085442  0.50398279    -0.12300
C972        C  0.79494915  0.90712788  0.51127657     0.18600
C973        C  0.79750474  0.89915329  0.47261316    -0.09300
C974        C  0.79715968  0.90435915  0.42762850    -0.02300
H975        H  0.79098552  0.92710583  0.53346660     0.05100
C976        C  0.79198011  0.89986913  0.55854702     0.20600
H977        H  0.79846069  0.89754962  0.39844018     0.10300
C978        C  0.77688057  0.88397939  0.56709965    -0.15700
C979        C  0.77286202  0.87680282  0.61134005     0.03300
C980        C  0.78403687  0.88573212  0.64896081    -0.11000
C981        C  0.79924155  0.90170511  0.64010079    -0.01000
C982        C  0.80328791  0.90871671  0.59543616    -0.06200
H983        H  0.76804012  0.87712938  0.53899738     0.06300
H984        H  0.80816889  0.90870696  0.66787572     0.09700
Br985      Br  0.80081085  0.88059657  0.47957030    -0.05900
Br986      Br  0.78898652  0.94458137  0.45397714    -0.02800
Br987      Br  0.75170021  0.85486958  0.61673760     0.00000
Br988      Br  0.82469736  0.93002064  0.58589953    -0.04300
C989        C  0.72482053  0.84949594  0.81811852    -0.11700
C990        C  0.71485747  0.83641719  0.85063698     0.03700
C991        C  0.69914113  0.83360030  0.86663271    -0.12300
C992        C  0.69311089  0.84357905  0.85068952     0.18600
C993        C  0.70286507  0.85635347  0.81784958    -0.09300
C994        C  0.71855775  0.85928591  0.80213610    -0.02300
H995        H  0.69168036  0.82372601  0.89190105     0.05100
C996        C  0.67656755  0.84055463  0.86796206     0.20600
H997        H  0.72591327  0.86932047  0.77719684     0.10300
C998        C  0.67647497  0.85202260  0.90053388    -0.15700
C999        C  0.66111406  0.85056776  0.91383156     0.03300
C1000       C  0.64549845  0.83742909  0.89435902    -0.11000
C1001       C  0.64563902  0.82562074  0.86304445    -0.01000
C1002       C  0.66096834  0.82715101  0.84964404    -0.06200
H1003       H  0.68843573  0.86231285  0.91501639     0.06300
H1004       H  0.63381109  0.81546099  0.84760599     0.09700
Br1005     Br  0.69508280  0.86995360  0.79282754    -0.05900
Br1006     Br  0.72230295  0.82266734  0.87674457    -0.02800
Br1007     Br  0.66222011  0.86643925  0.95977681     0.00000
Br1008     Br  0.66010623  0.81124590  0.80418768    -0.04300
C1009       C  0.82425829  0.63846439  0.14333167    -0.11700
C1010       C  0.83806417  0.64699690  0.11157936     0.03700
C1011       C  0.85064709  0.66439436  0.11844724    -0.12300
C1012       C  0.84997013  0.67342339  0.15716641     0.18600
C1013       C  0.83648586  0.66487169  0.18954149    -0.09300
C1014       C  0.82359918  0.64758238  0.18207339    -0.02300
H1015       H  0.86103656  0.67092645  0.09350185     0.05100
C1016       C  0.86342872  0.69180176  0.16282696     0.20600
H1017       H  0.81324513  0.64113083  0.20716462     0.10300
C1018       C  0.86141558  0.70409490  0.14190136    -0.15700
C1019       C  0.87410524  0.72161291  0.14565161     0.03300
C1020       C  0.88915849  0.72702667  0.17084018    -0.11000
C1021       C  0.89120100  0.71460590  0.19109312    -0.01000
C1022       C  0.87845975  0.69712727  0.18737866    -0.06200
H1023       H  0.84997133  0.70001672  0.12231255     0.06300
H1024       H  0.90260906  0.71850827  0.21065520     0.09700
Br1025     Br  0.83552849  0.67622521  0.24490473    -0.05900
Br1026     Br  0.84003336  0.63585975  0.05706494    -0.02800
Br1027     Br  0.87042391  0.73727594  0.11346035     0.00000
Br1028     Br  0.88199874  0.68092893  0.21662038    -0.04300
C1029       C  0.78960062  0.57216900  0.25885427    -0.11700
C1030       C  0.77693475  0.56760026  0.29377755     0.03700
C1031       C  0.78079837  0.56719573  0.34029432    -0.12300
C1032       C  0.79708222  0.57119932  0.35276580     0.18600
C1033       C  0.80933036  0.57475560  0.31783946    -0.09300
C1034       C  0.80552667  0.57514890  0.27143275    -0.02300
H1035       H  0.77125580  0.56431902  0.36702217     0.05100
C1036       C  0.80188670  0.57358640  0.40222562     0.20600
H1037       H  0.81543340  0.57870651  0.24536533     0.10300
C1038       C  0.80027077  0.55996892  0.42729747    -0.15700
C1039       C  0.80646723  0.56260256  0.47271992     0.03300
C1040       C  0.81459603  0.57913563  0.49332207    -0.11000
C1041       C  0.81583206  0.59261101  0.46835950    -0.01000
C1042       C  0.80940330  0.58990330  0.42343683    -0.06200
H1043       H  0.79463043  0.54740796  0.41102325     0.06300
H1044       H  0.82192293  0.60534849  0.48378864     0.09700
Br1045     Br  0.83184501  0.58028694  0.33238337    -0.05900
Br1046     Br  0.75418225  0.56175845  0.28051804    -0.02800
Br1047     Br  0.80485731  0.54361225  0.50336018     0.00000
Br1048     Br  0.81158207  0.60896760  0.39154410    -0.04300
C1049       C  0.79335807  0.57543593  0.99180339    -0.11700
C1050       C  0.80035259  0.56572638  0.97752034     0.03700
C1051       C  0.80372240  0.56469197  0.93018860    -0.12300
C1052       C  0.79961729  0.57262170  0.89665775     0.18600
C1053       C  0.79087772  0.58053703  0.91049933    -0.09300
C1054       C  0.78807405  0.58211929  0.95751524    -0.02300
H1055       H  0.81009455  0.55819644  0.91967032     0.05100
C1056       C  0.80632373  0.57451110  0.84860745     0.20600
H1057       H  0.78192640  0.58890761  0.96724383     0.10300
C1058       C  0.79828117  0.56082280  0.81653376    -0.15700
C1059       C  0.80414660  0.56288356  0.77031804     0.03300
C1060       C  0.81849623  0.57881428  0.75595598    -0.11000
C1061       C  0.82663440  0.59231081  0.78860516    -0.01000
C1062       C  0.82060551  0.59034913  0.83422129    -0.06200
H1063       H  0.78726761  0.54857898  0.82733405     0.06300
H1064       H  0.83756274  0.60469095  0.77832480     0.09700
Br1065     Br  0.78300590  0.58986969  0.86631675    -0.05900
Br1066     Br  0.80602719  0.55403514  0.02029699    -0.02800
Br1067     Br  0.79245168  0.54341676  0.72908060     0.00000
Br1068     Br  0.83216294  0.60985329  0.87554683    -0.04300
C1069       C  0.84100913  0.79392597  0.71233168    -0.11700
C1070       C  0.82344098  0.78447612  0.72511729     0.03700
C1071       C  0.81465409  0.79286650  0.73084874    -0.12300
C1072       C  0.82287472  0.81055539  0.72328735     0.18600
C1073       C  0.84013251  0.81982836  0.70859191    -0.09300
C1074       C  0.84903712  0.81157695  0.70366318    -0.02300
H1075       H  0.80140105  0.78560266  0.74225955     0.05100
C1076       C  0.81372728  0.81937630  0.73425006     0.20600
H1077       H  0.86235570  0.81906972  0.69286595     0.10300
C1078       C  0.81981277  0.83164028  0.77037503    -0.15700
C1079       C  0.81189238  0.84054349  0.78167056     0.03300
C1080       C  0.79732269  0.83705283  0.75707885    -0.11000
C1081       C  0.79090759  0.82439041  0.72182363    -0.01000
C1082       C  0.79905659  0.81570134  0.71002466    -0.06200
H1083       H  0.83086705  0.83434307  0.78986221     0.06300
H1084       H  0.77982699  0.82161606  0.70236156     0.09700
Br1085     Br  0.85198180  0.84373622  0.69361445    -0.05900
Br1086     Br  0.81065962  0.76028324  0.73709059    -0.02800
Br1087     Br  0.82124016  0.85675737  0.83238116     0.00000
Br1088     Br  0.79027860  0.79972405  0.65881441    -0.04300
C1089       C  0.91030620  0.78147893  0.32802469    -0.11700
C1090       C  0.90584827  0.76859732  0.36122133     0.03700
C1091       C  0.90156960  0.77061554  0.40673426    -0.12300
C1092       C  0.90166042  0.78526445  0.42053129     0.18600
C1093       C  0.90600323  0.79806776  0.38779859    -0.09300
C1094       C  0.91016353  0.79607272  0.34201481    -0.02300
H1095       H  0.89818901  0.76067972  0.43171716     0.05100
C1096       C  0.89740247  0.78682676  0.46954183     0.20600
H1097       H  0.91363559  0.80616537  0.31753113     0.10300
C1098       C  0.90993741  0.79214333  0.50360374    -0.15700
C1099       C  0.90584586  0.79160131  0.55096048     0.03300
C1100       C  0.88875410  0.78531356  0.56499971    -0.11000
C1101       C  0.87646494  0.78080471  0.53042157    -0.01000
C1102       C  0.88064157  0.78152451  0.48326875    -0.06200
H1103       H  0.92289175  0.79629576  0.49329455     0.06300
H1104       H  0.86333065  0.77616436  0.54001855     0.09700
Br1105     Br  0.90689040  0.81868195  0.40451623    -0.05900
Br1106     Br  0.90497629  0.74771494  0.34756105    -0.02800
Br1107     Br  0.92410883  0.79886774  0.59397395     0.00000
Br1108     Br  0.86277716  0.77426230  0.43900583    -0.04300
C1109       C  0.89156394  0.78377725  0.83315354    -0.11700
C1110       C  0.88285068  0.77220526  0.87004943     0.03700
C1111       C  0.88992420  0.77610854  0.91435896    -0.12300
C1112       C  0.90543830  0.79151534  0.92381574     0.18600
C1113       C  0.91411619  0.80319465  0.88761637    -0.09300
C1114       C  0.90724578  0.79923407  0.84272358    -0.02300
H1115       H  0.88324112  0.76695668  0.94189018     0.05100
C1116       C  0.91242396  0.79450826  0.97142863     0.20600
H1117       H  0.91408396  0.80841413  0.81539625     0.10300
C1118       C  0.92716639  0.79426655  0.97890776    -0.15700
C1119       C  0.93236671  0.79389924  0.02393950     0.03300
C1120       C  0.92257976  0.79360138  0.06273279    -0.11000
C1121       C  0.90855138  0.79509705  0.05500496    -0.01000
C1122       C  0.90341880  0.79547885  0.01003542    -0.06200
H1123       H  0.93427336  0.79364281  0.94949256     0.06300
H1124       H  0.90094794  0.79509082  0.08400745     0.09700
Br1125     Br  0.93492298  0.82497467  0.89860930    -0.05900
Br1126     Br  0.86132969  0.75062333  0.86357750    -0.02800
Br1127     Br  0.95280804  0.79364941  0.02936519     0.00000
Br1128     Br  0.88366313  0.79680037  0.00316019    -0.04300
C1129       C  0.85854017  0.72256272  0.68426174    -0.11700
C1130       C  0.84420506  0.70795663  0.70454717     0.03700
C1131       C  0.84163051  0.69165621  0.69722036    -0.12300
C1132       C  0.85315471  0.68960099  0.66998226     0.18600
C1133       C  0.86720933  0.70411699  0.64900321    -0.09300
C1134       C  0.86987312  0.72035149  0.65661127    -0.02300
H1135       H  0.83071661  0.68056803  0.71327726     0.05100
C1136       C  0.85011395  0.67223095  0.66245995     0.20600
H1137       H  0.88079138  0.73131498  0.64014883     0.10300
C1138       C  0.83590593  0.65993458  0.63668891    -0.15700
C1139       C  0.83318679  0.64377138  0.62626105     0.03300
C1140       C  0.84492557  0.63966951  0.64167712    -0.11000
C1141       C  0.85901727  0.65197073  0.66796620    -0.01000
C1142       C  0.86153197  0.66798538  0.67896755    -0.06200
H1143       H  0.82705253  0.66306515  0.62381357     0.06300
H1144       H  0.86795238  0.64898375  0.68101068     0.09700
Br1145     Br  0.88277875  0.70239466  0.60790907    -0.05900
Br1146     Br  0.82830661  0.70949242  0.74465309    -0.02800
Br1147     Br  0.81369289  0.62840920  0.58883828     0.00000
Br1148     Br  0.88039997  0.68335927  0.71816438    -0.04300
C1149       C  0.20713242  0.97685200  0.79620344    -0.11700
C1150       C  0.22171107  0.98492775  0.76668132     0.03700
C1151       C  0.23028533  0.00264483  0.75880255    -0.12300
C1152       C  0.22490989  0.01261093  0.78098721     0.18600
C1153       C  0.21125475  0.00483198  0.81303489    -0.09300
C1154       C  0.20235213  0.98710390  0.81989685    -0.02300
H1155       H  0.24084623  0.00857445  0.73421763     0.05100
C1156       C  0.23221615  0.03053611  0.76647134     0.20600
H1157       H  0.19147481  0.98126870  0.84350427     0.10300
C1158       C  0.22380945  0.03357927  0.73196867    -0.15700
C1159       C  0.22960205  0.05029753  0.71839892     0.03300
C1160       C  0.24415792  0.06442433  0.73953065    -0.11000
C1161       C  0.25282830  0.06130899  0.77333875    -0.01000
C1162       C  0.24689503  0.04453388  0.78710401    -0.06200
H1163       H  0.21256465  0.02283849  0.71569777     0.06300
H1164       H  0.26399440  0.07198238  0.79005668     0.09700
Br1165     Br  0.20418047  0.01796402  0.84752212    -0.05900
Br1166     Br  0.22988111  0.97246625  0.73360979    -0.02800
Br1167     Br  0.21748310  0.05284698  0.66944705     0.00000
Br1168     Br  0.25878747  0.04132289  0.83520652    -0.04300
C1169       C  0.19489825  0.81495015  0.83444858    -0.11700
C1170       C  0.20312414  0.82722373  0.79916081     0.03700
C1171       C  0.20006325  0.84035869  0.79543900    -0.12300
C1172       C  0.18916946  0.84171288  0.82700395     0.18600
C1173       C  0.18088772  0.82944782  0.86209967    -0.09300
C1174       C  0.18358023  0.81601213  0.86517761    -0.02300
H1175       H  0.20641801  0.84973028  0.76827826     0.05100
C1176       C  0.18693924  0.85625683  0.82315806     0.20600
H1177       H  0.17739500  0.80681205  0.89279343     0.10300
C1178       C  0.17392118  0.85446832  0.79519544    -0.15700
C1179       C  0.17166823  0.86811858  0.79007758     0.03300
C1180       C  0.18257484  0.88393765  0.81349749    -0.11000
C1181       C  0.19587036  0.88575855  0.84065062    -0.01000
C1182       C  0.19805450  0.87204816  0.84567322    -0.06200
H1183       H  0.16557182  0.84244237  0.77701555     0.06300
H1184       H  0.20437782  0.89775061  0.85875771     0.09700
Br1185     Br  0.16655516  0.83111810  0.90785047    -0.05900
Br1186     Br  0.21836856  0.82648693  0.75444792    -0.02800
Br1187     Br  0.15410667  0.86450984  0.74839327     0.00000
Br1188     Br  0.21623172  0.87526641  0.88398795    -0.04300
C1189       C  0.97709299  0.80379421  0.22615946    -0.11700
C1190       C  0.98303082  0.81402510  0.26688094     0.03700
C1191       C  0.00028409  0.82236045  0.27877441    -0.12300
C1192       C  0.01188147  0.82091206  0.25031590     0.18600
C1193       C  0.00596174  0.81068234  0.20969052    -0.09300
C1194       C  0.98863210  0.80207193  0.19815968    -0.02300
H1195       H  0.00468979  0.82999169  0.31043561     0.05100
C1196       C  0.03007330  0.83004900  0.26370759     0.20600
H1197       H  0.98423154  0.79431524  0.16674456     0.10300
C1198       C  0.03713115  0.82052979  0.27516111    -0.15700
C1199       C  0.05446033  0.82868856  0.28627638     0.03300
C1200       C  0.06506321  0.84684616  0.28661582    -0.11000
C1201       C  0.05775380  0.85629964  0.27617851    -0.01000
C1202       C  0.04047611  0.84808706  0.26475006    -0.06200
H1203       H  0.02911416  0.80663627  0.27496592     0.06300
H1204       H  0.06556828  0.87019907  0.27598225     0.09700
Br1205     Br  0.02120705  0.80871819  0.16790488    -0.05900
Br1206     Br  0.96804027  0.81629781  0.30902612    -0.02800
Br1207     Br  0.06245021  0.81403826  0.30051769     0.00000
Br1208     Br  0.03190561  0.86208230  0.24871930    -0.04300
C1209       C  0.15346473  0.91714835  0.93968773    -0.11700
C1210       C  0.13665410  0.90342947  0.95054492     0.03700
C1211       C  0.13117681  0.90009117  0.99695480    -0.12300
C1212       C  0.14213772  0.91017397  0.03313609     0.18600
C1213       C  0.15865234  0.92421175  0.02232965    -0.09300
C1214       C  0.16414485  0.92762502  0.97602871    -0.02300
H1215       H  0.11859037  0.88904392  0.00503233     0.05100
C1216       C  0.13726320  0.90411745  0.08144275     0.20600
H1217       H  0.17708147  0.93817815  0.96854624     0.10300
C1218       C  0.13776250  0.88993024  0.09430822    -0.15700
C1219       C  0.13414620  0.88398010  0.13977041     0.03300
C1220       C  0.12999309  0.89242456  0.17403047    -0.11000
C1221       C  0.12927329  0.90656713  0.16078807    -0.01000
C1222       C  0.13270149  0.91232344  0.11483838    -0.06200
H1223       H  0.14124109  0.88353672  0.06869702     0.06300
H1224       H  0.12577626  0.91302274  0.18606492     0.09700
Br1225     Br  0.17471259  0.93809476  0.06981440    -0.05900
Br1226     Br  0.12119235  0.88753587  0.90461012    -0.02800
Br1227     Br  0.13579793  0.86460525  0.15193951     0.00000
Br1228     Br  0.13049683  0.93100469  0.09870884    -0.04300
C1229       C  0.12400843  0.89272895  0.44370867    -0.11700
C1230       C  0.13528244  0.91009414  0.45758484     0.03700
C1231       C  0.13964660  0.91422264  0.50445200    -0.12300
C1232       C  0.13325468  0.90135653  0.53786264     0.18600
C1233       C  0.12171825  0.88418997  0.52451725    -0.09300
C1234       C  0.11702745  0.88004313  0.47810356    -0.02300
H1235       H  0.14868874  0.92746393  0.51460188     0.05100
C1236       C  0.14024591  0.90574886  0.58525322     0.20600
H1237       H  0.10848157  0.86662821  0.46870329     0.10300
C1238       C  0.13237440  0.91011273  0.61984673    -0.15700
C1239       C  0.13863880  0.91389702  0.66528682     0.03300
C1240       C  0.15318125  0.91347569  0.67647976    -0.11000
C1241       C  0.16098456  0.90911272  0.64134317    -0.01000
C1242       C  0.15459278  0.90519113  0.59626744    -0.06200
H1243       H  0.12127498  0.91050340  0.61147519     0.06300
H1244       H  0.17203129  0.90854288  0.64898967     0.09700
Br1245     Br  0.11313178  0.86584609  0.56798467    -0.05900
Br1246     Br  0.14600188  0.92876499  0.41487565    -0.02800
Br1247     Br  0.12696962  0.91996755  0.70951126     0.00000
Br1248     Br  0.16566134  0.89886270  0.55065086    -0.04300
C1249       C  0.24965487  0.81546881  0.22137863    -0.11700
C1250       C  0.23479647  0.79954854  0.20876506     0.03700
C1251       C  0.23136535  0.79482126  0.16182596    -0.12300
C1252       C  0.24251369  0.80562462  0.12697650     0.18600
C1253       C  0.25753446  0.82118476  0.13940774    -0.09300
C1254       C  0.26101609  0.82597153  0.18616650    -0.02300
H1255       H  0.21964867  0.78293526  0.15235833     0.05100
C1256       C  0.23734787  0.80142932  0.07793787     0.20600
H1257       H  0.27245475  0.83822101  0.19490899     0.10300
C1258       C  0.22664474  0.80622107  0.06010265    -0.15700
C1259       C  0.22141306  0.80264578  0.01394479     0.03300
C1260       C  0.22690145  0.79404340  0.98466225    -0.11000
C1261       C  0.23799027  0.78963451  0.00226349    -0.01000
C1262       C  0.24311148  0.79314216  0.04870829    -0.06200
H1263       H  0.22239710  0.81285850  0.08225296     0.06300
H1264       H  0.24223260  0.78295786  0.98030047     0.09700
Br1265     Br  0.27310919  0.83674027  0.09340428    -0.05900
Br1266     Br  0.21787067  0.78430165  0.25300128    -0.02800
Br1267     Br  0.20744232  0.81059639  0.99251375     0.00000
Br1268     Br  0.25753185  0.78598910  0.07122623    -0.04300
C1269       C  0.22484785  0.78604330  0.71810652    -0.11700
C1270       C  0.21538135  0.77438703  0.68175903     0.03700
C1271       C  0.22012662  0.77925548  0.63558499    -0.12300
C1272       C  0.23411879  0.79568308  0.62485857     0.18600
C1273       C  0.24391103  0.80710308  0.66104775    -0.09300
C1274       C  0.23937259  0.80216099  0.70720485    -0.02300
H1275       H  0.21251635  0.77042282  0.60793741     0.05100
C1276       C  0.23723617  0.80138943  0.57621490     0.20600
H1277       H  0.24668381  0.81131323  0.73460838     0.10300
C1278       C  0.23322280  0.81327439  0.56328959    -0.15700
C1279       C  0.23649146  0.81966418  0.51836288     0.03300
C1280       C  0.24402365  0.81416263  0.48516960    -0.11000
C1281       C  0.24739083  0.80169352  0.49764842    -0.01000
C1282       C  0.24404169  0.79528359  0.54281419    -0.06200
H1283       H  0.22753955  0.81767220  0.58857581     0.06300
H1284       H  0.25305345  0.79723545  0.47254500     0.09700
Br1285     Br  0.26314093  0.82985959  0.64900992    -0.05900
Br1286     Br  0.19587776  0.75167522  0.69284786    -0.02800
Br1287     Br  0.22956591  0.83522731  0.50441019     0.00000
Br1288     Br  0.24950563  0.77873619  0.55786532    -0.04300
C1289       C  0.22073407  0.84816018  0.35417053    -0.11700
C1290       C  0.22164469  0.86090202  0.32619573     0.03700
C1291       C  0.20817477  0.86360112  0.32723325    -0.12300
C1292       C  0.19369116  0.85373573  0.35573018     0.18600
C1293       C  0.19294958  0.84119788  0.38415197    -0.09300
C1294       C  0.20636692  0.83848717  0.38308354    -0.02300
H1295       H  0.20874776  0.87307827  0.30464460     0.05100
C1296       C  0.17909988  0.85598732  0.35265824     0.20600
H1297       H  0.20555830  0.82872802  0.40500930     0.10300
C1298       C  0.16361696  0.84274869  0.33337975    -0.15700
C1299       C  0.15015651  0.84507619  0.32540568     0.03300
C1300       C  0.15232886  0.86114844  0.33551424    -0.11000
C1301       C  0.16759247  0.87407852  0.35661126    -0.01000
C1302       C  0.18077980  0.87154902  0.36571464    -0.06200
H1303       H  0.16214247  0.83065747  0.32355351     0.06300
H1304       H  0.16931760  0.88629417  0.36621727     0.09700
Br1305     Br  0.17404953  0.82760707  0.42550750    -0.05900
Br1306     Br  0.24007836  0.87376449  0.28282467    -0.02800
Br1307     Br  0.12961804  0.82605748  0.29897015     0.00000
Br1308     Br  0.20060654  0.88956342  0.39731298    -0.04300
C1309       C  0.91261996  0.52997602  0.54588284    -0.11700
C1310       C  0.92263268  0.54706824  0.56327683     0.03700
C1311       C  0.91478219  0.55607785  0.57535596    -0.12300
C1312       C  0.89706530  0.54845902  0.57030992     0.18600
C1313       C  0.88728100  0.53177315  0.55106677    -0.09300
C1314       C  0.89499179  0.52270639  0.53960902    -0.02300
H1315       H  0.92251057  0.56903261  0.58928578     0.05100
C1316       C  0.88890545  0.55803949  0.58428628     0.20600
H1317       H  0.88702552  0.50978835  0.52556880     0.10300
C1318       C  0.89221905  0.57218663  0.55832612    -0.15700
C1319       C  0.88312888  0.58016235  0.56688364     0.03300
C1320       C  0.87061209  0.57416798  0.60260924    -0.11000
C1321       C  0.86783597  0.56044077  0.62969460    -0.01000
C1322       C  0.87684351  0.55243946  0.62098894    -0.06200
H1323       H  0.90133339  0.57651602  0.52974130     0.06300
H1324       H  0.85834258  0.55567598  0.65738803     0.09700
Br1325     Br  0.86334226  0.52091978  0.53827066    -0.05900
Br1326     Br  0.94690622  0.55885925  0.57232921    -0.02800
Br1327     Br  0.88691694  0.59774512  0.52514222     0.00000
Br1328     Br  0.87188112  0.53359597  0.65948468    -0.04300
C1329       C  0.17631662  0.45882372  0.41079653    -0.11700
C1330       C  0.18205405  0.47200073  0.44480174     0.03700
C1331       C  0.17254321  0.47936388  0.45460717    -0.12300
C1332       C  0.15723505  0.47376177  0.43139725     0.18600
C1333       C  0.15122669  0.46025890  0.39847423    -0.09300
C1334       C  0.16065937  0.45278591  0.38888733    -0.02300
H1335       H  0.17722453  0.48969401  0.48012346     0.05100
C1336       C  0.14865324  0.48323674  0.43876718     0.20600
H1337       H  0.15610097  0.44270964  0.36266286     0.10300
C1338       C  0.15721927  0.50037623  0.42484644    -0.15700
C1339       C  0.14941103  0.50969363  0.42881777     0.03300
C1340       C  0.13235220  0.50159082  0.44539988    -0.11000
C1341       C  0.12399848  0.48456445  0.46082388    -0.01000
C1342       C  0.13221103  0.47556995  0.45889864    -0.06200
H1343       H  0.17007115  0.50652423  0.41046840     0.06300
H1344       H  0.11121021  0.47837920  0.47560190     0.09700
Br1345     Br  0.13101947  0.45254879  0.36285980    -0.05900
Br1346     Br  0.20236312  0.48004030  0.48033720    -0.02800
Br1347     Br  0.16281080  0.53326121  0.41004206     0.00000
Br1348     Br  0.12108374  0.45340022  0.48694728    -0.04300
C1349       C  0.05548415  0.50879142  0.46028180    -0.11700
C1350       C  0.04432428  0.49682225  0.49355667     0.03700
C1351       C  0.02766048  0.49321968  0.49877697    -0.12300
C1352       C  0.02190567  0.50124402  0.47076476     0.18600
C1353       C  0.03266568  0.51222437  0.43536593    -0.09300
C1354       C  0.04938943  0.51608334  0.43071919    -0.02300
H1355       H  0.01949416  0.48485640  0.52629953     0.05100
C1356       C  0.00586155  0.50019869  0.48315448     0.20600
H1357       H  0.05778448  0.52508218  0.40453681     0.10300
C1358       C  0.00704704  0.51473326  0.50324262    -0.15700
C1359       C  0.99237905  0.51481585  0.51443004     0.03300
C1360       C  0.97604511  0.50013581  0.50494903    -0.11000
C1361       C  0.97491490  0.48534718  0.48628357    -0.01000
C1362       C  0.98964764  0.48526433  0.47559595    -0.06200
H1363       H  0.01953039  0.52611827  0.51028017     0.06300
H1364       H  0.96252489  0.47387014  0.47909312     0.09700
Br1365     Br  0.02514664  0.52258019  0.39347824    -0.05900
Br1366     Br  0.05177466  0.48660672  0.53614974    -0.02800
Br1367     Br  0.99572789  0.53510202  0.54452837     0.00000
Br1368     Br  0.98702678  0.46472972  0.44950898    -0.04300
C1369       C  0.14345031  0.63773599  0.91482450    -0.11700
C1370       C  0.13425914  0.64237337  0.88671946     0.03700
C1371       C  0.14152401  0.65960983  0.87480702    -0.12300
C1372       C  0.15800612  0.67238320  0.88940947     0.18600
C1373       C  0.16733138  0.66775120  0.91622673    -0.09300
C1374       C  0.16005611  0.65062214  0.92872632    -0.02300
H1375       H  0.13432990  0.66306137  0.85378897     0.05100
C1376       C  0.16510488  0.69060701  0.87834759     0.20600
H1377       H  0.16737490  0.64742885  0.95008300     0.10300
C1378       C  0.15979494  0.69982273  0.90490389    -0.15700
C1379       C  0.16751097  0.71751340  0.89904599     0.03300
C1380       C  0.18079718  0.72627038  0.86602511    -0.11000
C1381       C  0.18583977  0.71694347  0.83875776    -0.01000
C1382       C  0.17797992  0.69922198  0.84432661    -0.06200
H1383       H  0.15001710  0.69332700  0.93144164     0.06300
H1384       H  0.19594322  0.72347206  0.81301395     0.09700
Br1385     Br  0.18993508  0.68452949  0.93761428    -0.05900
Br1386     Br  0.11220737  0.62589954  0.86121678    -0.02800
Br1387     Br  0.16053473  0.72927795  0.94017756     0.00000
Br1388     Br  0.18524079  0.68728762  0.80497610    -0.04300
C1389       C  0.13331222  0.58290190  0.09564081    -0.11700
C1390       C  0.13079803  0.59141204  0.13343911     0.03700
C1391       C  0.12901220  0.58538346  0.17879725    -0.12300
C1392       C  0.13000380  0.57114043  0.18795361     0.18600
C1393       C  0.13372923  0.56342367  0.15095243    -0.09300
C1394       C  0.13530969  0.56926312  0.10546996    -0.02300
H1395       H  0.12653300  0.59168607  0.20710039     0.05100
C1396       C  0.12629719  0.56403521  0.23574513     0.20600
H1397       H  0.13744651  0.56261418  0.07743893     0.10300
C1398       C  0.11002546  0.54964432  0.24610564    -0.15700
C1399       C  0.10591215  0.54262410  0.29068579     0.03300
C1400       C  0.11829762  0.54989711  0.32623880    -0.11000
C1401       C  0.13446205  0.56459810  0.31605310    -0.01000
C1402       C  0.13849883  0.57162369  0.27133857    -0.06200
H1403       H  0.10037921  0.54391672  0.21934582     0.06300
H1404       H  0.14414081  0.57044147  0.34267581     0.09700
Br1405     Br  0.13660038  0.54474016  0.16095818    -0.05900
Br1406     Br  0.12987928  0.61145399  0.12607286    -0.02800
Br1407     Br  0.08277628  0.52375926  0.30135832     0.00000
Br1408     Br  0.16098144  0.59130519  0.25976380    -0.04300
C1409       C  0.12459384  0.56369168  0.83569921    -0.11700
C1410       C  0.13945105  0.56608747  0.81341323     0.03700
C1411       C  0.13865911  0.56073258  0.76691172    -0.12300
C1412       C  0.12317484  0.55259270  0.74255795     0.18600
C1413       C  0.10813645  0.54872338  0.76614448    -0.09300
C1414       C  0.10893330  0.55428640  0.81195959    -0.02300
H1415       H  0.15023466  0.56334948  0.74931044     0.05100
C1416       C  0.12282862  0.54918661  0.69192804     0.20600
H1417       H  0.09720508  0.55173199  0.82847889     0.10300
C1418       C  0.11883475  0.53307190  0.67576934    -0.15700
C1419       C  0.11640217  0.52881300  0.62836829     0.03300
C1420       C  0.11778944  0.54081142  0.59588022    -0.11000
C1421       C  0.12239840  0.55718707  0.61226177    -0.01000
C1422       C  0.12488121  0.56138431  0.65974879    -0.06200
H1423       H  0.11728945  0.52364026  0.70029123     0.06300
H1424       H  0.12363953  0.56662456  0.58826836     0.09700
Br1425     Br  0.08628078  0.53662485  0.73628383    -0.05900
Br1426     Br  0.16116609  0.57685965  0.84362700    -0.02800
Br1427     Br  0.11164048  0.50647868  0.61098051     0.00000
Br1428     Br  0.13051313  0.58375249  0.67974151    -0.04300
C1429       C  0.91273929  0.39619016  0.03635394    -0.11700
C1430       C  0.92151289  0.39007955  0.06034511     0.03700
C1431       C  0.91298150  0.37267998  0.07170819    -0.12300
C1432       C  0.89593677  0.36112487  0.05874237     0.18600
C1433       C  0.88752381  0.36700751  0.03268682    -0.09300
C1434       C  0.89584177  0.38440813  0.02219825    -0.02300
H1435       H  0.91953421  0.36820359  0.09168976     0.05100
C1436       C  0.88664029  0.34324766  0.07521643     0.20600
H1437       H  0.88900449  0.38875277  0.00299015     0.10300
C1438       C  0.87389518  0.33824115  0.10931766    -0.15700
C1439       C  0.86387683  0.32120552  0.12373301     0.03300
C1440       C  0.86653633  0.30872506  0.10370456    -0.11000
C1441       C  0.87989764  0.31398467  0.07110091    -0.01000
C1442       C  0.88988716  0.33108076  0.05670771    -0.06200
H1443       H  0.87157767  0.34766573  0.12439770     0.06300
H1444       H  0.88216993  0.30463270  0.05535633     0.09700
Br1445     Br  0.86472530  0.35164131  0.01018922    -0.05900
Br1446     Br  0.94468182  0.40476231  0.08119768    -0.02800
Br1447     Br  0.84721428  0.31611162  0.17181653     0.00000
Br1448     Br  0.90709793  0.33707135  0.00976934    -0.04300
C1449       C  0.92336925  0.45943179  0.14892804    -0.11700
C1450       C  0.91475777  0.46792099  0.15912060     0.03700
C1451       C  0.91309730  0.47198206  0.20529901    -0.12300
C1452       C  0.92010724  0.46799909  0.24167223     0.18600
C1453       C  0.92869958  0.45961755  0.23162251    -0.09300
C1454       C  0.93012933  0.45530212  0.18585012    -0.02300
H1455       H  0.90665413  0.47864741  0.21283694     0.05100
C1456       C  0.91918300  0.47336179  0.28976408     0.20600
H1457       H  0.93691715  0.44893733  0.17916087     0.10300
C1458       C  0.90885309  0.46087865  0.32257272    -0.15700
C1459       C  0.90922548  0.46525994  0.36956194     0.03300
C1460       C  0.91994918  0.48260118  0.38435373    -0.11000
C1461       C  0.92979646  0.49511726  0.35074586    -0.01000
C1462       C  0.92959745  0.49062381  0.30405145    -0.06200
H1463       H  0.90091733  0.44752450  0.31173688     0.06300
H1464       H  0.93825531  0.50846768  0.36095983     0.09700
Br1465     Br  0.93966930  0.45476967  0.27896888    -0.05900
Br1466     Br  0.90590778  0.47532330  0.11216283    -0.02800
Br1467     Br  0.89555808  0.44664995  0.41117327     0.00000
Br1468     Br  0.94481097  0.50828474  0.26162569    -0.04300
C1469       C  0.92061400  0.45100253  0.88179530    -0.11700
C1470       C  0.92836790  0.44800019  0.84300140     0.03700
C1471       C  0.92588945  0.45178217  0.79831808    -0.12300
C1472       C  0.91576394  0.45846147  0.79092890     0.18600
C1473       C  0.90725511  0.46056518  0.82880252    -0.09300
C1474       C  0.90966631  0.45680986  0.87372459    -0.02300
H1475       H  0.93247054  0.45014687  0.76923240     0.05100
C1476       C  0.91619869  0.46518926  0.74454380     0.20600
H1477       H  0.90342086  0.45903815  0.90254562     0.10300
C1478       C  0.90457552  0.45446002  0.71026471    -0.15700
C1479       C  0.90595598  0.46032840  0.66486280     0.03300
C1480       C  0.91933991  0.47723402  0.65324657    -0.11000
C1481       C  0.93059715  0.48796145  0.68838563    -0.01000
C1482       C  0.92914738  0.48210554  0.73337453    -0.06200
H1483       H  0.89456230  0.44138473  0.71870211     0.06300
H1484       H  0.94091881  0.50099755  0.68080122     0.09700
Br1485     Br  0.89297323  0.46938867  0.82081781    -0.05900
Br1486     Br  0.94305272  0.43940338  0.84740208    -0.02800
Br1487     Br  0.88929501  0.44453844  0.62094169     0.00000
Br1488     Br  0.94558848  0.49756065  0.77821789    -0.04300
C1489       C  0.98444142  0.48772626  0.01087747    -0.11700
C1490       C  0.99782339  0.48499947  0.00143117     0.03700
C1491       C  0.01476333  0.49899154  0.99982862    -0.12300
C1492       C  0.01882802  0.51577455  0.00766023     0.18600
C1493       C  0.00560267  0.51858417  0.01705051    -0.09300
C1494       C  0.98861103  0.50462615  0.01867687    -0.02300
H1495       H  0.02489528  0.49679016  0.99171629     0.05100
C1496       C  0.03688501  0.53011208  0.00337492     0.20600
H1497       H  0.97859969  0.50704846  0.02621556     0.10300
C1498       C  0.04172960  0.54169281  0.96690519    -0.15700
C1499       C  0.05895491  0.55434096  0.95881376     0.03300
C1500       C  0.07161193  0.55530322  0.98721478    -0.11000
C1501       C  0.06674333  0.54391543  0.02407594    -0.01000
C1502       C  0.04953708  0.53148271  0.03259734    -0.06200
H1503       H  0.03210652  0.54052574  0.94375747     0.06300
H1504       H  0.07640015  0.54464798  0.04626121     0.09700
Br1505     Br  0.01015612  0.54117775  0.02871299    -0.05900
Br1506     Br  0.99418887  0.46281195  0.98851603    -0.02800
Br1507     Br  0.06448589  0.56879523  0.90607898     0.00000
Br1508     Br  0.04401789  0.51680322  0.08473726    -0.04300
C1509       C  0.31086337  0.46567923  0.90093593    -0.11700
C1510       C  0.31549506  0.45904820  0.93725427     0.03700
C1511       C  0.33283874  0.46583441  0.94609324    -0.12300
C1512       C  0.34576024  0.47923480  0.91936302     0.18600
C1513       C  0.34114653  0.48588890  0.88327541    -0.09300
C1514       C  0.32384703  0.47917732  0.87451592    -0.02300
H1515       H  0.33628099  0.46090716  0.97459907     0.05100
C1516       C  0.36395184  0.48695910  0.93167606     0.20600
H1517       H  0.32051932  0.48445910  0.84663276     0.10300
C1518       C  0.37369891  0.48141853  0.90903521    -0.15700
C1519       C  0.39114813  0.48909785  0.91896289     0.03300
C1520       C  0.39911086  0.50266498  0.95201090    -0.11000
C1521       C  0.38913383  0.50789231  0.97503707    -0.01000
C1522       C  0.37175872  0.50014459  0.96531680    -0.06200
H1523       H  0.36777375  0.47128568  0.88300174     0.06300
H1524       H  0.39491661  0.51821823  0.00059794     0.09700
Br1525     Br  0.35804672  0.50436103  0.84563322    -0.05900
Br1526     Br  0.29881671  0.44183947  0.97837200    -0.02800
Br1527     Br  0.40350956  0.48123854  0.88400569     0.00000
Br1528     Br  0.35923412  0.50826657  0.99811355    -0.04300
C1529       C  0.64787743  0.52513711  0.04247438    -0.11700
C1530       C  0.65425325  0.51751097  0.07040061     0.03700
C1531       C  0.67177103  0.52608708  0.07863539    -0.12300
C1532       C  0.68314860  0.54228725  0.06004919     0.18600
C1533       C  0.67691301  0.55002472  0.03243726    -0.09300
C1534       C  0.65932633  0.54145423  0.02397056    -0.02300
H1535       H  0.67654132  0.52023931  0.10047832     0.05100
C1536       C  0.70140653  0.55093398  0.07130573     0.20600
H1537       H  0.65461111  0.54747811  0.00265771     0.10300
C1538       C  0.71170405  0.54692043  0.04519990    -0.15700
C1539       C  0.72875535  0.55385768  0.05727532     0.03300
C1540       C  0.73570186  0.56511040  0.09589957    -0.11000
C1541       C  0.72539962  0.56922604  0.12170864    -0.01000
C1542       C  0.70826388  0.56202151  0.11004079    -0.06200
H1543       H  0.70639803  0.53824797  0.01560503     0.06300
H1544       H  0.73058406  0.57774680  0.15160057     0.09700
Br1545     Br  0.69196517  0.57219099  0.00586560    -0.05900
Br1546     Br  0.63973662  0.49610401  0.10161721    -0.02800
Br1547     Br  0.74211778  0.54814385  0.01855355     0.00000
Br1548     Br  0.69446305  0.56710397  0.14876918    -0.04300
C1549       C  0.48878083  0.52156411  0.00251028    -0.11700
C1550       C  0.48669494  0.50527684  0.99905050     0.03700
C1551       C  0.50061966  0.50373570  0.00757162    -0.12300
C1552       C  0.51656115  0.51801100  0.02122041     0.18600
C1553       C  0.51833151  0.53402205  0.02729278    -0.09300
C1554       C  0.50464218  0.53570068  0.01747268    -0.02300
H1555       H  0.49906520  0.49132156  0.00278605     0.05100
C1556       C  0.53141059  0.51618373  0.02594007     0.20600
H1557       H  0.50645810  0.54823596  0.02188683     0.10300
C1558       C  0.54613081  0.52628915  0.99844074    -0.15700
C1559       C  0.56008382  0.52440819  0.00006600     0.03300
C1560       C  0.55905866  0.51151891  0.02765115    -0.11000
C1561       C  0.54446352  0.50156502  0.05559326    -0.01000
C1562       C  0.53090811  0.50408819  0.05582347    -0.06200
H1563       H  0.54671643  0.53562102  0.97520434     0.06300
H1564       H  0.54370925  0.49192510  0.07793690     0.09700
Br1565     Br  0.53897195  0.55390983  0.05050874    -0.05900
Br1566     Br  0.46549010  0.48468301  0.98213728    -0.02800
Br1567     Br  0.57978082  0.53926770  0.96231233     0.00000
Br1568     Br  0.51250589  0.49137182  0.09935470    -0.04300
C1569       C  0.51522400  0.39204694  0.53614449    -0.11700
C1570       C  0.49713780  0.38134511  0.53627183     0.03700
C1571       C  0.48910167  0.36377809  0.54473218    -0.12300
C1572       C  0.49866990  0.35659451  0.55442639     0.18600
C1573       C  0.51667910  0.36720950  0.55398595    -0.09300
C1574       C  0.52474739  0.38466455  0.54445453    -0.02300
H1575       H  0.47525525  0.35568096  0.54436314     0.05100
C1576       C  0.48964209  0.33808074  0.56525706     0.20600
H1577       H  0.53860306  0.39259769  0.54500081     0.10300
C1578       C  0.49269066  0.32730032  0.53755871    -0.15700
C1579       C  0.48492493  0.30993118  0.54804272     0.03300
C1580       C  0.47332107  0.30295459  0.58567105    -0.11000
C1581       C  0.46977605  0.31352777  0.61228505    -0.01000
C1582       C  0.47808455  0.33102986  0.60305023    -0.06200
H1583       H  0.50133147  0.33248568  0.50799521     0.06300
H1584       H  0.46102129  0.30828574  0.64157164     0.09700
Br1585     Br  0.53093431  0.35887192  0.56923498    -0.05900
Br1586     Br  0.48247095  0.38958555  0.52538308    -0.02800
Br1587     Br  0.49019314  0.29623177  0.50910069     0.00000
Br1588     Br  0.47413713  0.34484699  0.64545646    -0.04300
C1589       C  0.56429133  0.45427970  0.39176079    -0.11700
C1590       C  0.58211497  0.46502739  0.38263805     0.03700
C1591       C  0.58806889  0.46982415  0.33688798    -0.12300
C1592       C  0.57658177  0.46408686  0.29985332     0.18600
C1593       C  0.55897321  0.45291572  0.30869177    -0.09300
C1594       C  0.55300555  0.44804052  0.35403855    -0.02300
H1595       H  0.60165728  0.47846541  0.33030507     0.05100
C1596       C  0.58267719  0.47086391  0.25262647     0.20600
H1597       H  0.53931916  0.43979117  0.35982471     0.10300
C1598       C  0.58219582  0.45996974  0.21719457    -0.15700
C1599       C  0.58485106  0.46497253  0.17066022     0.03300
C1600       C  0.58825425  0.48130941  0.15901487    -0.11000
C1601       C  0.58948616  0.49242960  0.19508277    -0.01000
C1602       C  0.58662296  0.48731247  0.24131857    -0.06200
H1603       H  0.57905673  0.44723515  0.22566132     0.06300
H1604       H  0.59213624  0.50503630  0.18729352     0.09700
Br1605     Br  0.54241584  0.44512109  0.26017199    -0.05900
Br1606     Br  0.59902753  0.47422256  0.43053605    -0.02800
Br1607     Br  0.58335388  0.44871018  0.12534601     0.00000
Br1608     Br  0.58684309  0.50272115  0.28742176    -0.04300
C1609       C  0.58945139  0.48165916  0.88944628    -0.11700
C1610       C  0.59792552  0.49276632  0.85156928     0.03700
C1611       C  0.59320645  0.48655732  0.80608508    -0.12300
C1612       C  0.58010143  0.46946711  0.79723940     0.18600
C1613       C  0.57238357  0.45814031  0.83461164    -0.09300
C1614       C  0.57714115  0.46424614  0.88014175    -0.02300
H1615       H  0.59933127  0.49530477  0.77743592     0.05100
C1616       C  0.57358293  0.46424815  0.74938721     0.20600
H1617       H  0.57060882  0.45544342  0.90845538     0.10300
C1618       C  0.58354174  0.46261476  0.71497045    -0.15700
C1619       C  0.57794127  0.45855894  0.66889507     0.03300
C1620       C  0.56207061  0.45611375  0.65669338    -0.11000
C1621       C  0.55215514  0.45767016  0.69158506    -0.01000
C1622       C  0.55785367  0.46189354  0.73725897    -0.06200
H1623       H  0.59573027  0.46455058  0.72399239     0.06300
H1624       H  0.54004302  0.45603667  0.68315948     0.09700
Br1625     Br  0.55475336  0.43440554  0.82518251    -0.05900
Br1626     Br  0.61589529  0.51655551  0.85873737    -0.02800
Br1627     Br  0.59240009  0.45614779  0.62511665     0.00000
Br1628     Br  0.54417594  0.46536799  0.78136941    -0.04300
C1629       C  0.53076201  0.63504804  0.45857944    -0.11700
C1630       C  0.52731104  0.64290525  0.42288279     0.03700
C1631       C  0.53703300  0.66077163  0.41893405    -0.12300
C1632       C  0.55030705  0.67114410  0.44984080     0.18600
C1633       C  0.55417319  0.66335351  0.48460039    -0.09300
C1634       C  0.54449980  0.64540755  0.48850314    -0.02300
H1635       H  0.53407899  0.66666323  0.39185970     0.05100
C1636       C  0.55891597  0.69001504  0.44671478     0.20600
H1637       H  0.54730274  0.63958677  0.51610128     0.10300
C1638       C  0.54968393  0.69742622  0.45999715    -0.15700
C1639       C  0.55640464  0.71487928  0.45319002     0.03300
C1640       C  0.57278953  0.72535021  0.43249476    -0.11000
C1641       C  0.58224487  0.71796288  0.42066626    -0.01000
C1642       C  0.57538006  0.70043614  0.42713094    -0.06200
H1643       H  0.53699565  0.68946841  0.47511578     0.06300
H1644       H  0.59482098  0.72571443  0.40484946     0.09700
Br1645     Br  0.57183007  0.67672151  0.52897323    -0.05900
Br1646     Br  0.50991848  0.62999006  0.37734155    -0.02800
Br1647     Br  0.54252094  0.72340060  0.47394828     0.00000
Br1648     Br  0.58847320  0.69110987  0.40593776    -0.04300
C1649       C  0.47984655  0.56904552  0.34730191    -0.11700
C1650       C  0.48263606  0.55795115  0.31970853     0.03700
C1651       C  0.47748430  0.55471519  0.27350351    -0.12300
C1652       C  0.46979751  0.56254418  0.25376913     0.18600
C1653       C  0.46686395  0.57350573  0.28107960    -0.09300
C1654       C  0.47170098  0.57652823  0.32775746    -0.02300
H1655       H  0.47964711  0.54615006  0.25258700     0.05100
C1656       C  0.46500665  0.55901720  0.20450379     0.20600
H1657       H  0.46967178  0.58524141  0.34833784     0.10300
C1658       C  0.44904138  0.54456680  0.19262034    -0.15700
C1659       C  0.44480613  0.53967226  0.14619417     0.03300
C1660       C  0.45668200  0.54943443  0.11071450    -0.11000
C1661       C  0.47239347  0.56435866  0.12277629    -0.01000
C1662       C  0.47668085  0.56906176  0.16931862    -0.06200
H1663       H  0.44002356  0.53681476  0.21966467     0.06300
H1664       H  0.48174059  0.57189247  0.09609308     0.09700
Br1665     Br  0.45692378  0.58501080  0.25519070    -0.05900
Br1666     Br  0.49295127  0.54641858  0.34335031    -0.02800
Br1667     Br  0.42260593  0.51957056  0.13376370     0.00000
Br1668     Br  0.49896585  0.58865550  0.18361784    -0.04300
C1669       C  0.47999653  0.57856307  0.61205306    -0.11700
C1670       C  0.48771729  0.59214012  0.64496132     0.03700
C1671       C  0.48433417  0.58868255  0.69236358    -0.12300
C1672       C  0.47331968  0.57179609  0.70750218     0.18600
C1673       C  0.46453650  0.55844863  0.67450311    -0.09300
C1674       C  0.46787165  0.56190143  0.62716383    -0.02300
H1675       H  0.49083672  0.59908357  0.71750227     0.05100
C1676       C  0.47199019  0.56792358  0.75743793     0.20600
H1677       H  0.46179127  0.55133614  0.60232658     0.10300
C1678       C  0.46209805  0.57146477  0.78718869    -0.15700
C1679       C  0.45884326  0.56578128  0.83315473     0.03300
C1680       C  0.46540819  0.55620997  0.84953937    -0.11000
C1681       C  0.47599983  0.55348505  0.82021820    -0.01000
C1682       C  0.47954214  0.55949098  0.77485111    -0.06200
H1683       H  0.45637209  0.57807699  0.77411634     0.06300
H1684       H  0.48143285  0.54647631  0.83251824     0.09700
Br1685     Br  0.44859007  0.53516459  0.69293164    -0.05900
Br1686     Br  0.50298672  0.61557005  0.62675691    -0.02800
Br1687     Br  0.44420317  0.57020954  0.87026789     0.00000
Br1688     Br  0.49457948  0.55565548  0.73757660    -0.04300
C1689       C  0.50923010  0.54458050  0.49435625    -0.11700
C1690       C  0.50016579  0.53133000  0.52688040     0.03700
C1691       C  0.50348565  0.51832220  0.52975889    -0.12300
C1692       C  0.51549538  0.51808150  0.50006795     0.18600
C1693       C  0.52406590  0.53091521  0.46648605    -0.09300
C1694       C  0.52113135  0.54420033  0.46438740    -0.02300
H1695       H  0.49680848  0.50844994  0.55557051     0.05100
C1696       C  0.51934269  0.50467898  0.50554355     0.20600
H1697       H  0.52782929  0.55401104  0.43843298     0.10300
C1698       C  0.50796574  0.48801575  0.48829687    -0.15700
C1699       C  0.51159372  0.47521579  0.49191060     0.03300
C1700       C  0.52691701  0.47910858  0.51317625    -0.11000
C1701       C  0.53808945  0.49578929  0.53096337    -0.01000
C1702       C  0.53435846  0.50844298  0.52765389    -0.06200
H1703       H  0.49635349  0.48504376  0.47135885     0.06300
H1704       H  0.54978472  0.49902693  0.54790515     0.09700
Br1705     Br  0.53933746  0.53036049  0.42169827    -0.05900
Br1706     Br  0.48371844  0.53072445  0.56971576    -0.02800
Br1707     Br  0.49550946  0.45312024  0.46501086     0.00000
Br1708     Br  0.55000880  0.53061117  0.55476339    -0.04300
C1709       C  0.39598681  0.90288669  0.44174211    -0.11700
C1710       C  0.38731043  0.91084283  0.45723893     0.03700
C1711       C  0.37036826  0.90401005  0.44393066    -0.12300
C1712       C  0.36189324  0.88941535  0.41515927     0.18600
C1713       C  0.37060446  0.88171034  0.39881740    -0.09300
C1714       C  0.38742391  0.88834646  0.41248809    -0.02300
H1715       H  0.36363346  0.90988871  0.45688973     0.05100
C1716       C  0.34356798  0.88147971  0.40538645     0.20600
H1717       H  0.39394529  0.88225868  0.39939656     0.10300
C1718       C  0.33840431  0.88849923  0.37193293    -0.15700
C1719       C  0.32109246  0.88025692  0.35993927     0.03300
C1720       C  0.30884587  0.86463251  0.38116383    -0.11000
C1721       C  0.31408422  0.85801561  0.41554007    -0.01000
C1722       C  0.33120396  0.86644009  0.42824817    -0.06200
H1723       H  0.34788126  0.90016959  0.35450693     0.06300
H1724       H  0.30475829  0.84627275  0.43301061     0.09700
Br1725     Br  0.36003573  0.86222550  0.35727950    -0.05900
Br1726     Br  0.39741807  0.93048837  0.49824324    -0.02800
Br1727     Br  0.31512252  0.89026350  0.31257132     0.00000
Br1728     Br  0.33711277  0.85707665  0.47756975    -0.04300
C1729       C  0.64023545  0.13778074  0.57549203    -0.11700
C1730       C  0.65024068  0.15537651  0.58864506     0.03700
C1731       C  0.66796393  0.16354972  0.59380160    -0.12300
C1732       C  0.67606067  0.15453673  0.58720501     0.18600
C1733       C  0.66607922  0.13688330  0.57623282    -0.09300
C1734       C  0.64840681  0.12872625  0.56999216    -0.02300
H1735       H  0.67550025  0.17703274  0.60358057     0.05100
C1736       C  0.69486087  0.16375663  0.59315753     0.20600
H1737       H  0.64105073  0.11521187  0.56064980     0.10300
C1738       C  0.70138202  0.15996168  0.63111926    -0.15700
C1739       C  0.71903736  0.16889372  0.63888689     0.03300
C1740       C  0.73054117  0.18207923  0.60861354    -0.11000
C1741       C  0.72397334  0.18590129  0.57067963    -0.01000
C1742       C  0.70632157  0.17676148  0.56254811    -0.06200
H1743       H  0.69265896  0.15017403  0.65523458     0.06300
H1744       H  0.73262429  0.19593681  0.54699044     0.09700
Br1745     Br  0.67603368  0.12342338  0.56872214    -0.05900
Br1746     Br  0.64079067  0.16905373  0.60230464    -0.02800
Br1747     Br  0.72649231  0.16336899  0.69339163     0.00000
Br1748     Br  0.69845407  0.18211057  0.50851406    -0.04300
C1749       C  0.55126773  0.06061482  0.52966683    -0.11700
C1750       C  0.53448699  0.05282554  0.54811308     0.03700
C1751       C  0.52220413  0.03567640  0.53725450    -0.12300
C1752       C  0.52633151  0.02600909  0.50851601     0.18600
C1753       C  0.54305076  0.03363816  0.49038299    -0.09300
C1754       C  0.55540055  0.05080250  0.50123502    -0.02300
H1755       H  0.50938341  0.02977538  0.55165831     0.05100
C1756       C  0.51290498  0.00799862  0.49789626     0.20600
H1757       H  0.56817186  0.05659906  0.48659214     0.10300
C1758       C  0.49992615  0.00448260  0.46692010    -0.15700
C1759       C  0.48660553  0.98756591  0.45736610     0.03300
C1760       C  0.48622404  0.97387189  0.47913182    -0.11000
C1761       C  0.49934110  0.97746306  0.50978602    -0.01000
C1762       C  0.51251909  0.99436030  0.51963232    -0.06200
H1763       H  0.50018692  0.01497295  0.45010374     0.06300
H1764       H  0.49909818  0.96708247  0.52718607     0.09700
Br1765     Br  0.54936956  0.02122972  0.44964558    -0.05900
Br1766     Br  0.52771295  0.06445946  0.59048537    -0.02800
Br1767     Br  0.46987672  0.98400306  0.41280199     0.00000
Br1768     Br  0.52924556  0.99822117  0.56451961    -0.04300
C1769       C  0.45904681  0.16535209  0.09644687    -0.11700
C1770       C  0.45211523  0.14942135  0.11871088     0.03700
C1771       C  0.46009554  0.14020028  0.11313246    -0.12300
C1772       C  0.47471247  0.14638092  0.08475023     0.18600
C1773       C  0.48068041  0.16149494  0.05953508    -0.09300
C1774       C  0.47316663  0.17101726  0.06640296    -0.02300
H1775       H  0.45516413  0.12842449  0.13198205     0.05100
C1776       C  0.48420076  0.13758286  0.08343210     0.20600
H1777       H  0.47833496  0.18288393  0.04775524     0.10300
C1778       C  0.47649776  0.12077573  0.06539771    -0.15700
C1779       C  0.48582202  0.11286711  0.06053761     0.03300
C1780       C  0.50322495  0.12191287  0.07362781    -0.11000
C1781       C  0.51058685  0.13843519  0.09323647    -0.01000
C1782       C  0.50123478  0.14613375  0.09888803    -0.06200
H1783       H  0.46334794  0.11397283  0.05392861     0.06300
H1784       H  0.52375148  0.14544470  0.10465075     0.09700
Br1785     Br  0.49882007  0.16943405  0.01429132    -0.05900
Br1786     Br  0.43244308  0.14001290  0.15910085    -0.02800
Br1787     Br  0.47437675  0.09023208  0.03336519     0.00000
Br1788     Br  0.51234415  0.16828481  0.12902540    -0.04300
C1789       C  0.55383271  0.11620702  0.19281056    -0.11700
C1790       C  0.54532106  0.10459372  0.22969059     0.03700
C1791       C  0.55199927  0.10907766  0.27441170    -0.12300
C1792       C  0.56709809  0.12489328  0.28374087     0.18600
C1793       C  0.57559929  0.13653565  0.24748240    -0.09300
C1794       C  0.56894088  0.13216957  0.20253375    -0.02300
H1795       H  0.54554999  0.09993910  0.30215030     0.05100
C1796       C  0.57419203  0.12815004  0.33099812     0.20600
H1797       H  0.57565306  0.14133627  0.17504295     0.10300
C1798       C  0.58814001  0.12662943  0.33872279    -0.15700
C1799       C  0.59308091  0.12607305  0.38378626     0.03300
C1800       C  0.58374433  0.12677706  0.42235519    -0.11000
C1801       C  0.57060538  0.12965563  0.41431328    -0.01000
C1802       C  0.56583393  0.13036172  0.36908515    -0.06200
H1803       H  0.59474804  0.12511252  0.30950712     0.06300
H1804       H  0.56346437  0.13055881  0.44314674     0.09700
Br1805     Br  0.59612838  0.15856322  0.25817001    -0.05900
Br1806     Br  0.52510148  0.08200149  0.22208945    -0.02800
Br1807     Br  0.61246661  0.12398218  0.38927404     0.00000
Br1808     Br  0.54752686  0.13388391  0.36054845    -0.04300
C1809       C  0.57468385  0.11739406  0.68767741    -0.11700
C1810       C  0.57737134  0.13289096  0.70654316     0.03700
C1811       C  0.57431763  0.13402242  0.75392825    -0.12300
C1812       C  0.56837361  0.11988452  0.78295933     0.18600
C1813       C  0.56468056  0.10415435  0.76355647    -0.09300
C1814       C  0.56815364  0.10312505  0.71667364    -0.02300
H1815       H  0.57675209  0.14605674  0.76834570     0.05100
C1816       C  0.56532382  0.12144929  0.83291831     0.20600
H1817       H  0.56553387  0.09096784  0.70267167     0.10300
C1818       C  0.55204883  0.12372102  0.84600600    -0.15700
C1819       C  0.54728044  0.12302600  0.89262604     0.03300
C1820       C  0.55602952  0.12025324  0.92716345    -0.11000
C1821       C  0.57017299  0.11931869  0.91436882    -0.01000
C1822       C  0.57479327  0.11978026  0.86761975    -0.06200
H1823       H  0.54490240  0.12532614  0.81968544     0.06300
H1824       H  0.57700887  0.11718354  0.94048743     0.09700
Br1825     Br  0.55404809  0.08349005  0.79909211    -0.05900
Br1826     Br  0.58585457  0.15313759  0.67035570    -0.02800
Br1827     Br  0.52861293  0.12578412  0.90707043     0.00000
Br1828     Br  0.59366469  0.11738495  0.85281004    -0.04300
C1829       C  0.52953111  0.90094540  0.94646189    -0.11700
C1830       C  0.52365261  0.88456751  0.96458203     0.03700
C1831       C  0.53332746  0.87719467  0.95785120    -0.12300
C1832       C  0.54879000  0.88570756  0.93280022     0.18600
C1833       C  0.55446365  0.90178017  0.91348119    -0.09300
C1834       C  0.54500861  0.90939942  0.92101518    -0.02300
H1835       H  0.52881366  0.86476259  0.97251865     0.05100
C1836       C  0.55859977  0.87738789  0.92691502     0.20600
H1837       H  0.54956046  0.92178198  0.90600892     0.10300
C1838       C  0.55253624  0.86333994  0.89634647    -0.15700
C1839       C  0.56086094  0.85450316  0.89169567     0.03300
C1840       C  0.57561245  0.85969126  0.91806715    -0.11000
C1841       C  0.58186284  0.87400169  0.94805316    -0.01000
C1842       C  0.57337461  0.88271485  0.95295649    -0.06200
H1843       H  0.54120345  0.85918297  0.87613876     0.06300
H1844       H  0.59302697  0.87806284  0.96887919     0.09700
Br1845     Br  0.57460486  0.91330448  0.87490129    -0.05900
Br1846     Br  0.50296858  0.87185300  0.00072421    -0.02800
Br1847     Br  0.55175474  0.83588993  0.84730185     0.00000
Br1848     Br  0.58179707  0.90121476  0.99741450    -0.04300
C1849       C  0.45756844  0.91489678  0.32797989    -0.11700
C1850       C  0.46205131  0.92733680  0.29343316     0.03700
C1851       C  0.46435268  0.92387967  0.24734084    -0.12300
C1852       C  0.46248181  0.90828462  0.23420837     0.18600
C1853       C  0.45837771  0.89600372  0.26859238    -0.09300
C1854       C  0.45586399  0.89932064  0.31483225    -0.02300
H1855       H  0.46807680  0.93366304  0.22158854     0.05100
C1856       C  0.46642871  0.90599117  0.18528450     0.20600
H1857       H  0.45245639  0.88960926  0.34053234     0.10300
C1858       C  0.48062519  0.90478215  0.17596739    -0.15700
C1859       C  0.48647972  0.90533686  0.13050285     0.03300
C1860       C  0.47832032  0.90754175  0.09300018    -0.11000
C1861       C  0.46339174  0.90756343  0.10207349    -0.01000
C1862       C  0.45745330  0.90684951  0.14765977    -0.06200
H1863       H  0.48760386  0.90401252  0.20443502     0.06300
H1864       H  0.45679662  0.90904985  0.07384360     0.09700
Br1865     Br  0.45579202  0.87440329  0.25407454    -0.05900
Br1866     Br  0.46637787  0.94982269  0.30630731    -0.02800
Br1867     Br  0.50562730  0.90289505  0.12218657     0.00000
Br1868     Br  0.43728739  0.90751914  0.15689763    -0.04300
C1869       C  0.45401596  0.91255953  0.59818820    -0.11700
C1870       C  0.45943743  0.90157091  0.61103743     0.03700
C1871       C  0.46443960  0.90184368  0.65691473    -0.12300
C1872       C  0.46411033  0.91284272  0.69062941     0.18600
C1873       C  0.45831067  0.92342453  0.67829536    -0.09300
C1874       C  0.45326233  0.92314799  0.63277605    -0.02300
H1875       H  0.46883291  0.89359497  0.66621933     0.05100
C1876       C  0.47069968  0.91389386  0.73784926     0.20600
H1877       H  0.44923192  0.93175666  0.62417840     0.10300
C1878       C  0.48799518  0.92599480  0.74695041    -0.15700
C1879       C  0.49467199  0.92799121  0.79144939     0.03300
C1880       C  0.48381294  0.91785532  0.82850323    -0.11000
C1881       C  0.46648512  0.90555273  0.81885034    -0.01000
C1882       C  0.45995229  0.90349217  0.77406559    -0.06200
H1883       H  0.49636182  0.93398514  0.71915761     0.06300
H1884       H  0.45790906  0.89753109  0.84625636     0.09700
Br1885     Br  0.45764984  0.93894637  0.72222765    -0.05900
Br1886     Br  0.46018681  0.88579103  0.56834386    -0.02800
Br1887     Br  0.51881095  0.94460002  0.79779354     0.00000
Br1888     Br  0.43624414  0.88640172  0.76381629    -0.04300
C1889       C  0.51577172  0.97395564  0.99403508    -0.11700
C1890       C  0.50517309  0.97696569  0.02305108     0.03700
C1891       C  0.50883123  0.99365062  0.02936426    -0.12300
C1892       C  0.52307948  0.00763054  0.00780145     0.18600
C1893       C  0.53412131  0.00481086  0.98048824    -0.09300
C1894       C  0.53042398  0.98806033  0.97380839    -0.02300
H1895       H  0.50051339  0.99576080  0.05140637     0.05100
C1896       C  0.52608439  0.02496862  0.01491861     0.20600
H1897       H  0.53875706  0.98600485  0.95165220     0.10300
C1898       C  0.53765853  0.03602266  0.04877847    -0.15700
C1899       C  0.53966496  0.05187799  0.05922561     0.03300
C1900       C  0.52968557  0.05676622  0.03613769    -0.11000
C1901       C  0.51821638  0.04570490  0.00193852    -0.01000
C1902       C  0.51652310  0.03003972  0.99089317    -0.06200
H1903       H  0.54497055  0.03216312  0.06768749     0.06300
H1904       H  0.51075201  0.04939361  0.98309449     0.09700
Br1905     Br  0.55401032  0.02338029  0.95061065    -0.05900
Br1906     Br  0.48609117  0.95897536  0.05722457    -0.02800
Br1907     Br  0.55556686  0.06577913  0.10707245     0.00000
Br1908     Br  0.50130361  0.01610623  0.94200303    -0.04300
loop_ 
_geom_bond_atom_site_label_1 
_geom_bond_atom_site_label_2 
_geom_bond_distance 
_geom_bond_site_symmetry_2 
_ccdc_geom_bond_type 
In1           O3   2.237       .  S
In1           O4   2.271       .  S
In1          O12   2.244       .  S
In1           O6   2.262       .  S
In1           O8   2.272       .  S
In1           O9   2.271   1_556  S
In1          O10   2.229       .  S
In1          O13   2.238   1_556  S
C2            O8   1.266       .  A
C2           O10   1.259       .  A
C2         C1889   1.483       .  S
O3           C11   1.258       .  A
O4           C11   1.265       .  A
C5           O12   1.262       .  A
C5            O6   1.265       .  A
C5         C1829   1.486       .  S
C7            O9   1.266       .  A
C7           O13   1.261       .  A
C7         C1860   1.488       .  S
C11        C1880   1.494       .  S
In14         O16   2.219   1_554  S
In14         O17   2.264       .  S
In14         O25   2.226       .  S
In14         O19   2.263       .  S
In14         O21   2.262       .  S
In14         O22   2.257       .  S
In14         O23   2.236       .  S
In14         O26   2.228       .  S
C15          O21   1.266       .  A
C15          O23   1.259       .  A
C15        C1900   1.484       .  S
O16          C24   1.259       .  A
O17          C24   1.266   1_554  A
C18          O25   1.263       .  A
C18          O19   1.266       .  A
C18        C1780   1.487       .  S
C20          O22   1.267       .  A
C20          O26   1.261       .  A
C20        C1789   1.488       .  S
C24        C1820   1.476       .  S
In27         O29   2.226       .  S
In27         O30   2.259       .  S
In27         O38   2.234       .  S
In27         O32   2.248       .  S
In27         O34   2.250       .  S
In27         O35   2.265       .  S
In27         O36   2.230       .  S
In27         O39   2.225       .  S
C28          O34   1.264       .  A
C28          O36   1.260       .  A
C28        C1749   1.477       .  S
O29          C37   1.261       .  A
O30          C37   1.265       .  A
C31          O38   1.261       .  A
C31          O32   1.265       .  A
C31        C1729   1.488       .  S
C33          O35   1.266       .  A
C33          O39   1.258       .  A
C33        C1800   1.487       .  S
C37        C1809   1.483       .  S
In40         O42   2.232       .  S
In40         O43   2.280       .  S
In40         O51   2.242       .  S
In40         O45   2.230       .  S
In40         O47   2.238       .  S
In40         O48   2.276       .  S
In40         O49   2.228       .  S
In40         O52   2.221       .  S
C41          O47   1.262       .  A
C41          O49   1.262       .  A
C41        C1760   1.472       .  S
O42          C50   1.260       .  A
O43          C50   1.266       .  A
C44          O51   1.264       .  A
C44          O45   1.260       .  A
C44        C1709   1.479       .  S
C46          O48   1.268       .  A
C46          O52   1.257       .  A
C46        C1849   1.490       .  S
C50        C1869   1.495       .  S
In53         O55   2.227       .  S
In53         O56   2.265       .  S
In53         O64   2.229       .  S
In53         O58   2.257       .  S
In53         O60   2.254       .  S
In53         O61   2.261       .  S
In53         O62   2.228       .  S
In53         O65   2.217       .  S
C54          O60   1.266       .  A
C54          O62   1.260       .  A
C54        C1689   1.476       .  S
O55          C63   1.259       .  A
O56          C63   1.265       .  A
C57          O64   1.262       .  A
C57          O58   1.265       .  A
C57        C1629   1.480       .  S
C59          O61   1.267       .  A
C59          O65   1.260       .  A
C59        C1649   1.476       .  S
C63        C1669   1.477       .  S
In66         O68   2.235       .  S
In66         O69   2.260       .  S
In66         O77   2.233       .  S
In66         O71   2.240       .  S
In66         O73   2.256       .  S
In66         O74   2.253       .  S
In66         O75   2.229       .  S
In66         O78   2.233       .  S
C67          O73   1.263       .  A
C67          O75   1.261       .  A
C67        C1700   1.483       .  S
O68          C76   1.261       .  A
O69          C76   1.264       .  A
C70          O77   1.262       .  A
C70          O71   1.262       .  A
C70        C1569   1.483       .  S
C72          O74   1.263       .  A
C72          O78   1.262       .  A
C72        C1589   1.489       .  S
C76        C1620   1.487       .  S
In79         O81   2.228   1_554  S
In79         O82   2.257   1_554  S
In79         O90   2.208       .  S
In79         O84   2.249       .  S
In79         O86   2.244       .  S
In79         O87   2.254       .  S
In79         O88   2.226       .  S
In79         O91   2.222       .  S
C80          O86   1.266       .  A
C80          O88   1.262       .  A
C80        C1560   1.476       .  S
O81          C89   1.260       .  A
O82          C89   1.267       .  A
C83          O90   1.260       .  A
C83          O84   1.267       .  A
C83        C1529   1.473       .  S
C85          O87   1.268       .  A
C85          O91   1.262       .  A
C85        C1600   1.488       .  S
C89        C1609   1.486       .  S
In92         O94   2.230       .  S
In92         O95   2.255       .  S
In92        O103   2.228       .  S
In92         O97   2.267       .  S
In92         O99   2.262       .  S
In92        O100   2.248   1_556  S
In92        O101   2.222       .  S
In92        O104   2.219   1_556  S
C93          O99   1.266       .  A
C93         O101   1.261       .  A
C93        C1549   1.488   1_556  S
O94         C102   1.261       .  A
O95         C102   1.263       .  A
C96         O103   1.261       .  A
C96          O97   1.265       .  A
C96        C1520   1.486       .  S
C98         O100   1.266       .  A
C98         O104   1.261       .  A
C98        C1660   1.477       .  S
C102       C1680   1.478       .  S
In105       O107   2.228   1_554  S
In105       O108   2.269   1_554  S
In105       O116   2.239       .  S
In105       O110   2.241       .  S
In105       O112   2.229       .  S
In105       O113   2.269       .  S
In105       O114   2.242       .  S
In105       O117   2.218       .  S
C106        O112   1.261       .  A
C106        O114   1.263       .  A
C106       C1489   1.481       .  S
O107        C115   1.258       .  A
O108        C115   1.266       .  A
C109        O116   1.262       .  A
C109        O110   1.260       .  A
C109       C1429   1.480       .  S
C111        O113   1.265       .  A
C111        O117   1.259       .  A
C111       C1449   1.487       .  S
C115       C1469   1.491       .  S
In118       O120   2.223       .  S
In118       O121   2.300       .  S
In118       O129   2.267       .  S
In118       O123   2.249       .  S
In118       O125   2.236       .  S
In118       O126   2.278   1_556  S
In118       O127   2.219       .  S
In118       O130   2.251   1_556  S
C119        O125   1.264       .  A
C119        O127   1.262       .  A
C119       C1500   1.466       .  S
O120        C128   1.255       .  A
O121        C128   1.265       .  A
C122        O129   1.264       .  A
C122        O123   1.257       .  A
C122       C1369   1.489       .  S
C124        O126   1.266       .  A
C124        O130   1.260       .  A
C124       C1389   1.498       .  S
C128       C1409   1.493       .  S
In131       O133   2.230       .  S
In131       O134   2.287       .  S
In131       O142   2.226       .  S
In131       O136   2.247       .  S
In131       O138   2.245       .  S
In131       O139   2.285       .  S
In131       O140   2.231       .  S
In131       O143   2.237       .  S
C132        O138   1.263       .  A
C132        O140   1.262       .  A
C132       C1349   1.471       .  S
O133        C141   1.257       .  A
O134        C141   1.268       .  A
C135        O142   1.261       .  A
C135        O136   1.264       .  A
C135       C1340   1.480       .  S
C137        O139   1.268       .  A
C137        O143   1.261       .  A
C137       C1400   1.494       .  S
C141       C1420   1.493       .  S
In144       O146   2.211       .  S
In144       O147   2.260       .  S
In144       O155   2.230       .  S
In144       O149   2.260       .  S
In144       O151   2.248       .  S
In144       O152   2.249       .  S
In144       O153   2.223       .  S
In144       O156   2.224       .  S
C145        O151   1.268       .  A
C145        O153   1.262       .  A
C145       C1360   1.482       .  S
O146        C154   1.262       .  A
O147        C154   1.268       .  A
C148        O155   1.264       .  A
C148        O149   1.266       .  A
C148       C1309   1.494       .  S
C150        O152   1.267       .  A
C150        O156   1.263       .  A
C150       C1460   1.489       .  S
C154       C1480   1.489       .  S
In157       O159   2.238       .  S
In157       O160   2.256       .  S
In157       O168   2.220       .  S
In157       O162   2.254       .  S
In157       O164   2.254       .  S
In157       O165   2.258       .  S
In157       O166   2.223       .  S
In157       O169   2.219       .  S
C158        O164   1.265       .  A
C158        O166   1.260       .  A
C158       C1289   1.475       .  S
O159        C167   1.260       .  A
O160        C167   1.262       .  A
C161        O168   1.261       .  A
C161        O162   1.264       .  A
C161       C1720   1.473       .  S
C163        O165   1.266       .  A
C163        O169   1.260       .  A
C163       C1280   1.479       .  S
C167       C1249   1.485       .  S
In170       O172   2.221       .  S
In170       O173   2.271       .  S
In170       O181   2.229       .  S
In170       O175   2.238       .  S
In170       O177   2.257       .  S
In170       O178   2.263       .  S
In170       O179   2.221       .  S
In170       O182   2.219       .  S
C171        O177   1.266       .  A
C171        O179   1.262       .  A
C171       C1300   1.484       .  S
O172        C180   1.259       .  A
O173        C180   1.267       .  A
C174        O181   1.263       .  A
C174        O175   1.264       .  A
C174       C1200   1.484       .  S
C176        O178   1.267       .  A
C176        O182   1.261       .  A
C176       C1229   1.490       .  S
C180       C1220   1.489       .  S
In183       O185   2.214       .  S
In183       O186   2.266       .  S
In183       O194   2.237       .  S
In183       O188   2.245       .  S
In183       O190   2.253       .  S
In183       O191   2.247       .  S
In183       O192   2.215       .  S
In183       O195   2.217       .  S
C184        O190   1.267       .  A
C184        O192   1.260       .  A
C184       C1169   1.472       .  S
O185        C193   1.258       .  A
O186        C193   1.266       .  A
C187        O194   1.262       .  A
C187        O188   1.265       .  A
C187       C1380   1.478       .  S
C189        O191   1.268       .  A
C189        O195   1.262       .  A
C189       C1269   1.477       .  S
C193       C1260   1.477       .  S
In196       O198   2.240       .  S
In196       O199   2.258       .  S
In196       O207   2.238       .  S
In196       O201   2.266       .  S
In196       O203   2.264       .  S
In196       O204   2.257       .  S
In196       O205   2.231       .  S
In196       O208   2.237       .  S
C197        O203   1.265       .  A
C197        O205   1.259       .  A
C197       C1180   1.483       .  S
O198        C206   1.262       .  A
O199        C206   1.263       .  A
C200        O207   1.261       .  A
C200        O201   1.264       .  A
C200       C1149   1.486       .  S
C202        O204   1.264       .  A
C202        O208   1.261       .  A
C202       C1240   1.487       .  S
C206       C1209   1.485       .  S
In209       O211   2.230       .  S
In209       O212   2.266       .  S
In209       O220   2.247       .  S
In209       O214   2.252       .  S
In209       O216   2.267       .  S
In209       O217   2.281       .  S
In209       O218   2.234       .  S
In209       O221   2.226       .  S
C210        O216   1.265       .  A
C210        O218   1.261       .  A
C210       C1129   1.486       .  S
O211        C219   1.261       .  A
O212        C219   1.266       .  A
C213        O220   1.263       .  A
C213        O214   1.263       .  A
C213       C1069   1.492       .  S
C215        O217   1.266       .  A
C215        O221   1.258       .  A
C215       C1109   1.493       .  S
C219       C1100   1.492       .  S
In222       O224   2.235       .  S
In222       O225   2.264       .  S
In222       O233   2.249       .  S
In222       O227   2.278       .  S
In222       O229   2.256       .  S
In222       O230   2.264       .  S
In222       O231   2.240       .  S
In222       O234   2.231       .  S
C223        O229   1.268       .  A
C223        O231   1.261       .  A
C223       C1140   1.487       .  S
O224        C232   1.260       .  A
O225        C232   1.265       .  A
C226        O233   1.260       .  A
C226        O227   1.264       .  A
C226       C1320   1.489       .  S
C228        O230   1.265       .  A
C228        O234   1.262       .  A
C228       C1060   1.485       .  S
C232       C1040   1.480       .  S
In235       O237   2.231       .  S
In235       O238   2.267       .  S
In235       O246   2.225       .  S
In235       O240   2.245       .  S
In235       O242   2.248       .  S
In235       O243   2.256       .  S
In235       O244   2.224       .  S
In235       O247   2.245       .  S
C236        O242   1.265       .  A
C236        O244   1.260       .  A
C236       C1020   1.478       .  S
O237        C245   1.260       .  A
O238        C245   1.268       .  A
C239        O246   1.261       .  A
C239        O240   1.264       .  A
C239       C1189   1.472       .  S
C241        O243   1.266       .  A
C241        O247   1.260       .  A
C241       C1120   1.489       .  S
C245       C1089   1.492       .  S
In248       O250   2.238       .  S
In248       O251   2.260       .  S
In248       O259   2.226       .  S
In248       O253   2.237       .  S
In248       O255   2.256       .  S
In248       O256   2.270       .  S
In248       O257   2.241       .  S
In248       O260   2.214       .  S
C249        O255   1.263       .  A
C249        O257   1.260       .  A
C249       C1009   1.478       .  S
O250        C258   1.257       .  A
O251        C258   1.265       .  A
C252        O259   1.262       .  A
C252        O253   1.265       .  A
C252       C1540   1.469       .  S
C254        O256   1.268       .  A
C254        O260   1.262       .  A
C254       C1049   1.488   1_554  S
C258       C1029   1.484       .  S
In261       O263   2.217       .  S
In261       O264   2.280       .  S
In261       O272   2.241       .  S
In261       O266   2.259       .  S
In261       O268   2.263       .  S
In261       O269   2.276       .  S
In261       O270   2.233       .  S
In261       O273   2.239       .  S
C262        O268   1.264       .  A
C262        O270   1.262       .  A
C262        C989   1.486       .  S
O263        C271   1.258       .  A
O264        C271   1.269       .  A
C265        O272   1.262       .  A
C265        O266   1.264       .  A
C265       C1080   1.485       .  S
C267        O269   1.267       .  A
C267        O273   1.260       .  A
C267        C980   1.497       .  S
C271        C960   1.494       .  S
In274       O276   2.232       .  S
In274       O277   2.260       .  S
In274       O285   2.224       .  S
In274       O279   2.264       .  S
In274       O281   2.262       .  S
In274       O282   2.262       .  S
In274       O283   2.222       .  S
In274       O286   2.222       .  S
C275        O281   1.269       .  A
C275        O283   1.262       .  A
C275       C1000   1.484       .  S
O276        C284   1.263       .  A
O277        C284   1.267       .  A
C278        O285   1.262       .  A
C278        O279   1.269       .  A
C278       C1840   1.484       .  S
C280        O282   1.271       .  A
C280        O286   1.262       .  A
C280        C929   1.491       .  S
C284        C909   1.492   1_556  S
In287       O289   2.238       .  S
In287       O290   2.281       .  S
In287       O298   2.246       .  S
In287       O292   2.250       .  S
In287       O294   2.250       .  S
In287       O295   2.269       .  S
In287       O296   2.240       .  S
In287       O299   2.225       .  S
C288        O294   1.263       .  A
C288        O296   1.260       .  A
C288        C889   1.485       .  S
O289        C297   1.258       .  A
O290        C297   1.265       .  A
C291        O298   1.262       .  A
C291        O292   1.262       .  A
C291       C1640   1.486       .  S
C293        O295   1.267       .  A
C293        O299   1.259       .  A
C293        C940   1.485       .  S
C297        C920   1.494       .  S
In300       O302   2.230       .  S
In300       O303   2.271       .  S
In300       O311   2.237       .  S
In300       O305   2.236       .  S
In300       O307   2.239       .  S
In300       O308   2.265       .  S
In300       O309   2.224       .  S
In300       O312   2.236       .  S
C301        O307   1.264       .  A
C301        O309   1.261       .  A
C301        C900   1.474       .  S
O302        C310   1.260       .  A
O303        C310   1.266       .  A
C304        O311   1.263       .  A
C304        O305   1.261       .  A
C304        C869   1.481       .  S
C306        O308   1.267       .  A
C306        O312   1.260       .  A
C306        C969   1.490       .  S
C310        C949   1.491       .  S
In313       O315   2.234       .  S
In313       O316   2.275       .  S
In313       O324   2.244       .  S
In313       O318   2.255       .  S
In313       O320   2.256       .  S
In313       O321   2.267       .  S
In313       O322   2.244       .  S
In313       O325   2.227       .  S
C314        O320   1.264       .  A
C314        O322   1.262       .  A
C314        C849   1.486       .  S
O315        C323   1.259       .  A
O316        C323   1.266       .  A
C317        O324   1.262       .  A
C317        O318   1.263       .  A
C317       C1769   1.486       .  S
C319        O321   1.267       .  A
C319        O325   1.259       .  A
C319        C829   1.489   1_554  S
C323        C809   1.488       .  S
In326       O328   2.238       .  S
In326       O329   2.255       .  S
In326       O337   2.234       .  S
In326       O331   2.259       .  S
In326       O333   2.269       .  S
In326       O334   2.262       .  S
In326       O335   2.234       .  S
In326       O338   2.240       .  S
C327        O333   1.266       .  A
C327        O335   1.260       .  A
C327        C860   1.483       .  S
O328        C336   1.264       .  A
O329        C336   1.266       .  A
C330        O337   1.261       .  A
C330        O331   1.266       .  A
C330        C749   1.479       .  S
C332        O334   1.263       .  A
C332        O338   1.259       .  A
C332        C800   1.481       .  S
C336        C769   1.486       .  S
In339       O341   2.238       .  S
In339       O342   2.257       .  S
In339       O350   2.245       .  S
In339       O344   2.254       .  S
In339       O346   2.233       .  S
In339       O347   2.274       .  S
In339       O348   2.245       .  S
In339       O351   2.232       .  S
C340        O346   1.262       .  A
C340        O348   1.261       .  A
C340        C729   1.471       .  S
O341        C349   1.261       .  A
O342        C349   1.265       .  A
C343        O350   1.261       .  A
C343        O344   1.260       .  A
C343       C1160   1.482       .  S
C345        O347   1.261       .  A
C345        O351   1.256       .  A
C345        C789   1.485       .  S
C349        C780   1.488       .  S
In352       O354   2.220       .  S
In352       O355   2.253       .  S
In352       O363   2.229       .  S
In352       O357   2.236       .  S
In352       O359   2.242       .  S
In352       O360   2.259       .  S
In352       O361   2.228       .  S
In352       O364   2.227       .  S
C353        O359   1.264       .  A
C353        O361   1.261       .  A
C353        C740   1.470       .  S
O354        C362   1.263       .  A
O355        C362   1.266       .  A
C356        O363   1.262       .  A
C356        O357   1.264       .  A
C356       C1580   1.469       .  S
C358        O360   1.265       .  A
C358        O364   1.257       .  A
C358        C840   1.486       .  S
C362        C820   1.488       .  S
In365       O367   2.213       .  S
In365       O368   2.267       .  S
In365       O376   2.246       .  S
In365       O370   2.252       .  S
In365       O372   2.251       .  S
In365       O373   2.259       .  S
In365       O374   2.247       .  S
In365       O377   2.221       .  S
C366        O372   1.266       .  A
C366        O374   1.261       .  A
C366        C709   1.486       .  S
O367        C375   1.259       .  A
O368        C375   1.268       .  A
C369        O376   1.262       .  A
C369        O370   1.264       .  A
C369       C1740   1.481       .  S
C371        O373   1.266       .  A
C371        O377   1.261       .  A
C371        C700   1.487       .  S
C375        C669   1.484       .  S
In378       O380   2.218       .  S
In378       O381   2.271       .  S
In378       O389   2.241       .  S
In378       O383   2.263       .  S
In378       O385   2.268       .  S
In378       O386   2.265       .  S
In378       O387   2.248       .  S
In378       O390   2.217       .  S
C379        O385   1.265       .  A
C379        O387   1.261       .  A
C379        C720   1.493       .  S
O380        C388   1.258       .  A
O381        C388   1.266       .  A
C382        O389   1.261       .  A
C382        O383   1.265       .  A
C382        C609   1.486       .  S
C384        O386   1.267       .  A
C384        O390   1.260       .  A
C384        C660   1.487       .  S
C388        C629   1.488       .  S
In391       O393   2.217       .  S
In391       O394   2.256       .  S
In391       O402   2.231       .  S
In391       O396   2.256       .  S
In391       O398   2.248       .  S
In391       O399   2.257       .  S
In391       O400   2.237       .  S
In391       O403   2.214       .  S
C392        O398   1.267       .  A
C392        O400   1.261       .  A
C392        C600   1.485       .  S
O393        C401   1.262       .  A
O394        C401   1.267       .  A
C395        O402   1.261       .  A
C395        O396   1.266       .  A
C395       C1440   1.483       .  S
C397        O399   1.266       .  A
C397        O403   1.262       .  A
C397        C689   1.487       .  S
C401        C680   1.488       .  S
In404       O406   2.230       .  S
In404       O407   2.272       .  S
In404       O415   2.235       .  S
In404       O409   2.237       .  S
In404       O411   2.259       .  S
In404       O412   2.264       .  S
In404       O413   2.230       .  S
In404       O416   2.215       .  S
C405        O411   1.264       .  A
C405        O413   1.261       .  A
C405        C589   1.478       .  S
O406        C414   1.260       .  A
O407        C414   1.265       .  A
C408        O415   1.262       .  A
C408        O409   1.263       .  A
C408        C880   1.474       .  S
C410        O412   1.268       .  A
C410        O416   1.260       .  A
C410        C649   1.486       .  S
C414        C640   1.493       .  S
In417       O419   2.251       .  S
In417       O420   2.266       .  S
In417       O428   2.236       .  S
In417       O422   2.256       .  S
In417       O424   2.253       .  S
In417       O425   2.260       .  S
In417       O426   2.229       .  S
In417       O429   2.236       .  S
C418        O424   1.264       .  A
C418        O426   1.262       .  A
C418        C569   1.487       .  S
O419        C427   1.261       .  A
O420        C427   1.264       .  A
C421        O428   1.260       .  A
C421        O422   1.264       .  A
C421       C1329   1.479       .  S
C423        O425   1.265       .  A
C423        O429   1.262       .  A
C423        C549   1.491       .  S
C427        C540   1.496       .  S
In430       O432   2.231       .  S
In430       O433   2.263       .  S
In430       O441   2.254       .  S
In430       O435   2.245       .  S
In430       O437   2.253       .  S
In430       O438   2.277       .  S
In430       O439   2.235       .  S
In430       O442   2.225       .  S
C431        O437   1.264       .  A
C431        O439   1.260       .  A
C431        C580   1.469       .  S
O432        C440   1.263       .  A
O433        C440   1.267       .  A
C434        O441   1.263       .  A
C434        O435   1.263       .  A
C434        C760   1.487       .  S
C436        O438   1.267       .  A
C436        O442   1.257       .  A
C436        C520   1.491       .  S
C440        C500   1.495       .  S
In443       O445   2.214       .  S
In443       O446   2.272       .  S
In443       O454   2.245       .  S
In443       O448   2.249       .  S
In443       O450   2.249       .  S
In443       O451   2.271       .  S
In443       O452   2.232       .  S
In443       O455   2.216       .  S
C444        O450   1.266       .  A
C444        O452   1.261       .  A
C444        C469   1.478       .  S
O445        C453   1.260       .  A
O446        C453   1.269       .  A
C447        O454   1.264       .  A
C447        O448   1.264       .  A
C447       C1509   1.481       .  S
C449        O451   1.268       .  A
C449        O455   1.260       .  A
C449        C560   1.488       .  S
C453        C529   1.482       .  S
In456       O458   2.242       .  S
In456       O459   2.282       .  S
In456       O467   2.244       .  S
In456       O461   2.252       .  S
In456       O463   2.256       .  S
In456       O464   2.278       .  S
In456       O465   2.229       .  S
In456       O468   2.239       .  S
C457        O463   1.264       .  A
C457        O465   1.261       .  A
C457        C480   1.478       .  S
O458        C466   1.259       .  A
O459        C466   1.267       .  A
C460        O467   1.263       .  A
C460        O461   1.263       .  A
C460        C620   1.487       .  S
C462        O464   1.267       .  A
C462        O468   1.258       .  A
C462        C509   1.496       .  S
C466        C489   1.499       .  S
C469        C470   1.412       .  A
C469        C474   1.405       .  A
C470        C471   1.401       .  A
C470       Br486   1.920       .  S
C471        C472   1.402       .  A
C471        H475   1.084       .  S
C472        C476   1.478       .  S
C472        C473   1.406       .  A
C473        C474   1.399       .  A
C473       Br485   1.918       .  S
C474        H477   1.084       .  S
C476        C478   1.400       .  A
C476        C482   1.408       .  A
C478        C479   1.397       .  A
C478        H483   1.083       .  S
C479        C480   1.412       .  A
C479       Br487   1.922       .  S
C480        C481   1.406       .  A
C481        C482   1.402       .  A
C481        H484   1.083       .  S
C482       Br488   1.917       .  S
C489        C490   1.422       .  A
C489        C494   1.409       .  A
C490        C491   1.402       .  A
C490       Br506   1.921       .  S
C491        C492   1.399       .  A
C491        H495   1.085   1_556  S
C492        C496   1.490   1_556  S
C492        C493   1.409       .  A
C493        C494   1.406       .  A
C493       Br505   1.918       .  S
C494        H497   1.084       .  S
C496        C498   1.405       .  A
C496        C502   1.408       .  A
C498        C499   1.407       .  A
C498        H503   1.082       .  S
C499        C500   1.417       .  A
C499       Br507   1.920       .  S
C500        C501   1.409       .  A
C501        C502   1.400       .  A
C501        H504   1.083       .  S
C502       Br508   1.919       .  S
C509        C510   1.421       .  A
C509        C514   1.409       .  A
C510        C511   1.401       .  A
C510       Br526   1.922       .  S
C511        C512   1.401       .  A
C511        H515   1.083       .  S
C512        C516   1.488       .  S
C512        C513   1.408       .  A
C513        C514   1.405       .  A
C513       Br525   1.918       .  S
C514        H517   1.082       .  S
C516        C518   1.401       .  A
C516        C522   1.409       .  A
C518        C519   1.400       .  A
C518        H523   1.083       .  S
C519        C520   1.419       .  A
C519       Br527   1.923       .  S
C520        C521   1.407       .  A
C521        C522   1.404       .  A
C521        H524   1.083       .  S
C522       Br528   1.918       .  S
C529        C530   1.413   1_556  A
C529        C534   1.405   1_556  A
C530        C531   1.399       .  A
C530       Br546   1.923   1_554  S
C531        C532   1.403       .  A
C531        H535   1.083       .  S
C532        C536   1.490       .  S
C532        C533   1.411       .  A
C533        C534   1.406       .  A
C533       Br545   1.916       .  S
C534        H537   1.082   1_554  S
C536        C538   1.404       .  A
C536        C542   1.407       .  A
C538        C539   1.406       .  A
C538        H543   1.083       .  S
C539        C540   1.418       .  A
C539       Br547   1.920       .  S
C540        C541   1.409       .  A
C541        C542   1.402       .  A
C541        H544   1.083       .  S
C542       Br548   1.919       .  S
C549        C550   1.417       .  A
C549        C554   1.409       .  A
C550        C551   1.405       .  A
C550       Br566   1.920       .  S
C551        C552   1.402       .  A
C551        H555   1.083       .  S
C552        C556   1.482       .  S
C552        C553   1.405       .  A
C553        C554   1.398       .  A
C553       Br565   1.920       .  S
C554        H557   1.083       .  S
C556        C558   1.405       .  A
C556        C562   1.404       .  A
C558        C559   1.407       .  A
C558        H563   1.083       .  S
C559        C560   1.414       .  A
C559       Br567   1.918       .  S
C560        C561   1.408       .  A
C561        C562   1.396       .  A
C561        H564   1.083       .  S
C562       Br568   1.919       .  S
C569        C570   1.417       .  A
C569        C574   1.408       .  A
C570        C571   1.403       .  A
C570       Br586   1.921       .  S
C571        C572   1.401       .  A
C571        H575   1.084       .  S
C572        C576   1.477       .  S
C572        C573   1.403       .  A
C573        C574   1.396       .  A
C573       Br585   1.919       .  S
C574        H577   1.084       .  S
C576        C578   1.403       .  A
C576        C582   1.407       .  A
C578        C579   1.401       .  A
C578        H583   1.082       .  S
C579        C580   1.407       .  A
C579       Br587   1.918       .  S
C580        C581   1.402       .  A
C581        C582   1.400       .  A
C581        H584   1.083       .  S
C582       Br588   1.918       .  S
C589        C590   1.411       .  A
C589        C594   1.405       .  A
C590        C591   1.397       .  A
C590       Br606   1.921       .  S
C591        C592   1.402       .  A
C591        H595   1.083       .  S
C592        C596   1.483       .  S
C592        C593   1.410       .  A
C593        C594   1.403       .  A
C593       Br605   1.918       .  S
C594        H597   1.083       .  S
C596        C598   1.402       .  A
C596        C602   1.408       .  A
C598        C599   1.403       .  A
C598        H603   1.082       .  S
C599        C600   1.417       .  A
C599       Br607   1.921       .  S
C600        C601   1.405       .  A
C601        C602   1.398       .  A
C601        H604   1.082       .  S
C602       Br608   1.919       .  S
C609        C610   1.413       .  A
C609        C614   1.406       .  A
C610        C611   1.405   1_655  A
C610       Br626   1.919       .  S
C611        C612   1.405       .  A
C611        H615   1.083       .  S
C612        C616   1.487       .  S
C612        C613   1.409   1_455  A
C613        C614   1.400       .  A
C613       Br625   1.920   1_655  S
C614        H617   1.084       .  S
C616        C618   1.403       .  A
C616        C622   1.409       .  A
C618        C619   1.403       .  A
C618        H623   1.085       .  S
C619        C620   1.415       .  A
C619       Br627   1.920       .  S
C620        C621   1.406       .  A
C621        C622   1.400       .  A
C621        H624   1.085       .  S
C622       Br628   1.919       .  S
C629        C630   1.419       .  A
C629        C634   1.407       .  A
C630        C631   1.399       .  A
C630       Br646   1.923       .  S
C631        C632   1.400       .  A
C631        H635   1.085       .  S
C632        C636   1.485       .  S
C632        C633   1.410       .  A
C633        C634   1.403       .  A
C633       Br645   1.919       .  S
C634        H637   1.085       .  S
C636        C638   1.404       .  A
C636        C642   1.407       .  A
C638        C639   1.406       .  A
C638        H643   1.083       .  S
C639        C640   1.417       .  A
C639       Br647   1.919       .  S
C640        C641   1.409       .  A
C641        C642   1.398       .  A
C641        H644   1.083       .  S
C642       Br648   1.922       .  S
C649        C650   1.418       .  A
C649        C654   1.408       .  A
C650        C651   1.397   1_554  A
C650       Br666   1.923       .  S
C651        C652   1.399       .  A
C651        H655   1.083       .  S
C652        C656   1.479       .  S
C652        C653   1.406       .  A
C653        C654   1.403   1_556  A
C653       Br665   1.918       .  S
C654        H657   1.083       .  S
C656        C658   1.398       .  A
C656        C662   1.406       .  A
C658        C659   1.396       .  A
C658        H663   1.085       .  S
C659        C660   1.418       .  A
C659       Br667   1.922       .  S
C660        C661   1.409       .  A
C661        C662   1.403       .  A
C661        H664   1.084       .  S
C662       Br668   1.918       .  S
C669        C670   1.416       .  A
C669        C674   1.406       .  A
C670        C671   1.397       .  A
C670       Br686   1.924       .  S
C671        C672   1.401       .  A
C671        H675   1.085       .  S
C672        C676   1.484       .  S
C672        C673   1.409       .  A
C673        C674   1.403       .  A
C673       Br685   1.917       .  S
C674        H677   1.084       .  S
C676        C678   1.404       .  A
C676        C682   1.406       .  A
C678        C679   1.404       .  A
C678        H683   1.083       .  S
C679        C680   1.415       .  A
C679       Br687   1.920       .  S
C680        C681   1.408       .  A
C681        C682   1.396       .  A
C681        H684   1.083       .  S
C682       Br688   1.920       .  S
C689        C690   1.417   1_554  A
C689        C694   1.407   1_554  A
C690        C691   1.405       .  A
C690       Br706   1.919   1_556  S
C691        C692   1.403       .  A
C691        H695   1.083       .  S
C692        C696   1.479       .  S
C692        C693   1.406       .  A
C693        C694   1.393       .  A
C693       Br705   1.922       .  S
C694        H697   1.083       .  S
C696        C698   1.403       .  A
C696        C702   1.404       .  A
C698        C699   1.401       .  A
C698        H703   1.084       .  S
C699        C700   1.415       .  A
C699       Br707   1.919       .  S
C700        C701   1.409       .  A
C701        C702   1.398       .  A
C701        H704   1.083       .  S
C702       Br708   1.920       .  S
C709        C710   1.415       .  A
C709        C714   1.404       .  A
C710        C711   1.405       .  A
C710       Br726   1.921       .  S
C711        C712   1.405       .  A
C711        H715   1.083       .  S
C712        C716   1.491       .  S
C712        C713   1.410       .  A
C713        C714   1.400       .  A
C713       Br725   1.918       .  S
C714        H717   1.083       .  S
C716        C718   1.403       .  A
C716        C722   1.409       .  A
C718        C719   1.402       .  A
C718        H723   1.082       .  S
C719        C720   1.417       .  A
C719       Br727   1.921       .  S
C720        C721   1.408       .  A
C721        C722   1.405       .  A
C721        H724   1.082       .  S
C722       Br728   1.919       .  S
C729        C730   1.410       .  A
C729        C734   1.402       .  A
C730        C731   1.399       .  A
C730       Br746   1.921       .  S
C731        C732   1.403       .  A
C731        H735   1.085       .  S
C732        C736   1.476       .  S
C732        C733   1.407       .  A
C733        C734   1.396       .  A
C733       Br745   1.917       .  S
C734        H737   1.084       .  S
C736        C738   1.403       .  A
C736        C742   1.408       .  A
C738        C739   1.399       .  A
C738        H743   1.085       .  S
C739        C740   1.410       .  A
C739       Br747   1.920       .  S
C740        C741   1.402       .  A
C741        C742   1.396       .  A
C741        H744   1.085       .  S
C742       Br748   1.918       .  S
C749        C750   1.413       .  A
C749        C754   1.404       .  A
C750        C751   1.402       .  A
C750       Br766   1.921       .  S
C751        C752   1.403       .  A
C751        H755   1.083       .  S
C752        C756   1.482       .  S
C752        C753   1.407       .  A
C753        C754   1.401       .  A
C753       Br765   1.917       .  S
C754        H757   1.082       .  S
C756        C758   1.401       .  A
C756        C762   1.406       .  A
C758        C759   1.402       .  A
C758        H763   1.083       .  S
C759        C760   1.415       .  A
C759       Br767   1.920       .  S
C760        C761   1.408       .  A
C761        C762   1.402       .  A
C761        H764   1.083       .  S
C762       Br768   1.919       .  S
C769        C770   1.415       .  A
C769        C774   1.405       .  A
C770        C771   1.406       .  A
C770       Br786   1.920       .  S
C771        C772   1.403       .  A
C771        H775   1.084       .  S
C772        C776   1.484       .  S
C772        C773   1.407       .  A
C773        C774   1.399       .  A
C773       Br785   1.919       .  S
C774        H777   1.083       .  S
C776        C778   1.402       .  A
C776        C782   1.407       .  A
C778        C779   1.403       .  A
C778        H783   1.082       .  S
C779        C780   1.416       .  A
C779       Br787   1.921       .  S
C780        C781   1.407       .  A
C781        C782   1.401       .  A
C781        H784   1.083       .  S
C782       Br788   1.917       .  S
C789        C790   1.416       .  A
C789        C794   1.406       .  A
C790        C791   1.404       .  A
C790       Br806   1.919       .  S
C791        C792   1.402       .  A
C791        H795   1.083       .  S
C792        C796   1.478       .  S
C792        C793   1.406       .  A
C793        C794   1.395       .  A
C793       Br805   1.921       .  S
C794        H797   1.083       .  S
C796        C798   1.402   1_556  A
C796        C802   1.405   1_556  A
C798        C799   1.400       .  A
C798        H803   1.085       .  S
C799        C800   1.413       .  A
C799       Br807   1.919       .  S
C800        C801   1.407       .  A
C801        C802   1.401       .  A
C801        H804   1.084       .  S
C802       Br808   1.918   1_554  S
C809        C810   1.416       .  A
C809        C814   1.406       .  A
C810        C811   1.401       .  A
C810       Br826   1.921       .  S
C811        C812   1.401       .  A
C811        H815   1.083       .  S
C812        C816   1.484       .  S
C812        C813   1.409       .  A
C813        C814   1.403       .  A
C813       Br825   1.918       .  S
C814        H817   1.083       .  S
C816        C818   1.404       .  A
C816        C822   1.407       .  A
C818        C819   1.407       .  A
C818        H823   1.084       .  S
C819        C820   1.417       .  A
C819       Br827   1.920       .  S
C820        C821   1.406       .  A
C821        C822   1.395       .  A
C821        H824   1.084       .  S
C822       Br828   1.920       .  S
C829        C830   1.418       .  A
C829        C834   1.407       .  A
C830        C831   1.400       .  A
C830       Br846   1.923       .  S
C831        C832   1.401       .  A
C831        H835   1.083       .  S
C832        C836   1.485       .  S
C832        C833   1.408       .  A
C833        C834   1.402       .  A
C833       Br845   1.918       .  S
C834        H837   1.083   1_556  S
C836        C838   1.401       .  A
C836        C842   1.409       .  A
C838        C839   1.400       .  A
C838        H843   1.084       .  S
C839        C840   1.418       .  A
C839       Br847   1.922       .  S
C840        C841   1.406       .  A
C841        C842   1.400       .  A
C841        H844   1.083       .  S
C842       Br848   1.918       .  S
C849        C850   1.414       .  A
C849        C854   1.406       .  A
C850        C851   1.406       .  A
C850       Br866   1.920       .  S
C851        C852   1.404       .  A
C851        H855   1.082       .  S
C852        C856   1.485       .  S
C852        C853   1.406       .  A
C853        C854   1.400       .  A
C853       Br865   1.918       .  S
C854        H857   1.082       .  S
C856        C858   1.402       .  A
C856        C862   1.409       .  A
C858        C859   1.402       .  A
C858        H863   1.083       .  S
C859        C860   1.412       .  A
C859       Br867   1.921       .  S
C860        C861   1.405       .  A
C861        C862   1.404       .  A
C861        H864   1.083       .  S
C862       Br868   1.918       .  S
C869        C870   1.416       .  A
C869        C874   1.406       .  A
C870        C871   1.399       .  A
C870       Br886   1.921       .  S
C871        C872   1.400   1_565  A
C871        H875   1.083       .  S
C872        C876   1.475       .  S
C872        C873   1.406       .  A
C873        C874   1.397   1_545  A
C873       Br885   1.920       .  S
C874        H877   1.084       .  S
C876        C878   1.401       .  A
C876        C882   1.407       .  A
C878        C879   1.398       .  A
C878        H883   1.083       .  S
C879        C880   1.411       .  A
C879       Br887   1.920       .  S
C880        C881   1.405       .  A
C881        C882   1.399       .  A
C881        H884   1.084       .  S
C882       Br888   1.920       .  S
C889        C890   1.415       .  A
C889        C894   1.406       .  A
C890        C891   1.399       .  A
C890       Br906   1.921       .  S
C891        C892   1.402       .  A
C891        H895   1.083       .  S
C892        C896   1.485       .  S
C892        C893   1.411       .  A
C893        C894   1.399       .  A
C893       Br905   1.921       .  S
C894        H897   1.083       .  S
C896        C898   1.403       .  A
C896        C902   1.413       .  A
C898        C899   1.398       .  A
C898        H903   1.083       .  S
C899        C900   1.412       .  A
C899       Br907   1.922       .  S
C900        C901   1.402       .  A
C901        C902   1.398       .  A
C901        H904   1.084       .  S
C902       Br908   1.920       .  S
C909        C910   1.416       .  A
C909        C914   1.408       .  A
C910        C911   1.407       .  A
C910       Br926   1.920       .  S
C911        C912   1.404       .  A
C911        H915   1.083       .  S
C912        C916   1.487       .  S
C912        C913   1.408       .  A
C913        C914   1.399       .  A
C913       Br925   1.920       .  S
C914        H917   1.083       .  S
C916        C918   1.400       .  A
C916        C922   1.409       .  A
C918        C919   1.401       .  A
C918        H923   1.084       .  S
C919        C920   1.419       .  A
C919       Br927   1.921       .  S
C920        C921   1.409       .  A
C921        C922   1.405       .  A
C921        H924   1.084       .  S
C922       Br928   1.918       .  S
C929        C930   1.420       .  A
C929        C934   1.408       .  A
C930        C931   1.400       .  A
C930       Br946   1.923       .  S
C931        C932   1.399       .  A
C931        H935   1.084       .  S
C932        C936   1.482       .  S
C932        C933   1.407       .  A
C933        C934   1.404       .  A
C933       Br945   1.918       .  S
C934        H937   1.083       .  S
C936        C938   1.400       .  A
C936        C942   1.408       .  A
C938        C939   1.398       .  A
C938        H943   1.083       .  S
C939        C940   1.416       .  A
C939       Br947   1.922       .  S
C940        C941   1.407       .  A
C941        C942   1.404       .  A
C941        H944   1.082       .  S
C942       Br948   1.917       .  S
C949        C950   1.416       .  A
C949        C954   1.408       .  A
C950        C951   1.407       .  A
C950       Br966   1.919       .  S
C951        C952   1.403       .  A
C951        H955   1.083       .  S
C952        C956   1.484       .  S
C952        C953   1.406       .  A
C953        C954   1.398       .  A
C953       Br965   1.919       .  S
C954        H957   1.084       .  S
C956        C958   1.398   1_554  A
C956        C962   1.407   1_554  A
C958        C959   1.400       .  A
C958        H963   1.083   1_556  S
C959        C960   1.421       .  A
C959       Br967   1.923       .  S
C960        C961   1.409       .  A
C961        C962   1.406       .  A
C961        H964   1.082       .  S
C962       Br968   1.917       .  S
C969        C970   1.418       .  A
C969        C974   1.406       .  A
C970        C971   1.403       .  A
C970       Br986   1.921       .  S
C971        C972   1.402       .  A
C971        H975   1.084       .  S
C972        C976   1.488       .  S
C972        C973   1.409       .  A
C973        C974   1.402       .  A
C973       Br985   1.918       .  S
C974        H977   1.084       .  S
C976        C978   1.400       .  A
C976        C982   1.408       .  A
C978        C979   1.400       .  A
C978        H983   1.084       .  S
C979        C980   1.420       .  A
C979       Br987   1.922       .  S
C980        C981   1.410       .  A
C981        C982   1.406       .  A
C981        H984   1.083       .  S
C982       Br988   1.917       .  S
C989        C990   1.416       .  A
C989        C994   1.405       .  A
C990        C991   1.406       .  A
C990      Br1006   1.920       .  S
C991        C992   1.404       .  A
C991        H995   1.082       .  S
C992        C996   1.481       .  S
C992        C993   1.405       .  A
C993        C994   1.397       .  A
C993      Br1005   1.918       .  S
C994        H997   1.082       .  S
C996        C998   1.405       .  A
C996       C1002   1.405       .  A
C998        C999   1.404       .  A
C998       H1003   1.082       .  S
C999       C1000   1.411       .  A
C999      Br1007   1.918       .  S
C1000      C1001   1.407       .  A
C1001      C1002   1.399       .  A
C1001      H1004   1.083       .  S
C1002     Br1008   1.919       .  S
C1009      C1010   1.412       .  A
C1009      C1014   1.405       .  A
C1010      C1011   1.399       .  A
C1010     Br1026   1.920       .  S
C1011      C1012   1.400       .  A
C1011      H1015   1.083       .  S
C1012      C1016   1.476       .  S
C1012      C1013   1.407       .  A
C1013      C1014   1.401       .  A
C1013     Br1025   1.918       .  S
C1014      H1017   1.083       .  S
C1016      C1018   1.401       .  A
C1016      C1022   1.405       .  A
C1018      C1019   1.400       .  A
C1018      H1023   1.083       .  S
C1019      C1020   1.415       .  A
C1019     Br1027   1.923       .  S
C1020      C1021   1.405       .  A
C1021      C1022   1.398       .  A
C1021      H1024   1.083       .  S
C1022     Br1028   1.917       .  S
C1029      C1030   1.417       .  A
C1029      C1034   1.404       .  A
C1030      C1031   1.403       .  A
C1030     Br1046   1.921       .  S
C1031      C1032   1.401       .  A
C1031      H1035   1.084       .  S
C1032      C1036   1.480       .  S
C1032      C1033   1.406       .  A
C1033      C1034   1.398       .  A
C1033     Br1045   1.918       .  S
C1034      H1037   1.084       .  S
C1036      C1038   1.403       .  A
C1036      C1042   1.406       .  A
C1038      C1039   1.405       .  A
C1038      H1043   1.083       .  S
C1039      C1040   1.411       .  A
C1039     Br1047   1.918       .  S
C1040      C1041   1.405       .  A
C1041      C1042   1.398       .  A
C1041      H1044   1.083       .  S
C1042     Br1048   1.920       .  S
C1049      C1050   1.415       .  A
C1049      C1054   1.407       .  A
C1050      C1051   1.407       .  A
C1050     Br1066   1.919   1_556  S
C1051      C1052   1.405       .  A
C1051      H1055   1.083       .  S
C1052      C1056   1.482       .  S
C1052      C1053   1.404       .  A
C1053      C1054   1.395       .  A
C1053     Br1065   1.919       .  S
C1054      H1057   1.083       .  S
C1056      C1058   1.404       .  A
C1056      C1062   1.408       .  A
C1058      C1059   1.407       .  A
C1058      H1063   1.085       .  S
C1059      C1060   1.414       .  A
C1059     Br1067   1.918       .  S
C1060      C1061   1.405       .  A
C1061      C1062   1.396       .  A
C1061      H1064   1.084       .  S
C1062     Br1068   1.921       .  S
C1069      C1070   1.417       .  A
C1069      C1074   1.408       .  A
C1070      C1071   1.404       .  A
C1070     Br1086   1.920       .  S
C1071      C1072   1.403       .  A
C1071      H1075   1.083       .  S
C1072      C1076   1.489       .  S
C1072      C1073   1.408       .  A
C1073      C1074   1.401       .  A
C1073     Br1085   1.920       .  S
C1074      H1077   1.083       .  S
C1076      C1078   1.404       .  A
C1076      C1082   1.410       .  A
C1078      C1079   1.400       .  A
C1078      H1083   1.083       .  S
C1079      C1080   1.413       .  A
C1079     Br1087   1.920       .  S
C1080      C1081   1.406       .  A
C1081      C1082   1.404       .  A
C1081      H1084   1.083       .  S
C1082     Br1088   1.918       .  S
C1089      C1090   1.419       .  A
C1089      C1094   1.408       .  A
C1090      C1091   1.401       .  A
C1090     Br1106   1.923       .  S
C1091      C1092   1.400       .  A
C1091      H1095   1.083       .  S
C1092      C1096   1.485       .  S
C1092      C1093   1.407       .  A
C1093      C1094   1.404       .  A
C1093     Br1105   1.916       .  S
C1094      H1097   1.082       .  S
C1096      C1098   1.403       .  A
C1096      C1102   1.406       .  A
C1098      C1099   1.405       .  A
C1098      H1103   1.083       .  S
C1099      C1100   1.416       .  A
C1099     Br1107   1.920       .  S
C1100      C1101   1.409       .  A
C1101      C1102   1.400       .  A
C1101      H1104   1.083       .  S
C1102     Br1108   1.918       .  S
C1109      C1110   1.419       .  A
C1109      C1114   1.410       .  A
C1110      C1111   1.398       .  A
C1110     Br1126   1.923       .  S
C1111      C1112   1.400       .  A
C1111      H1115   1.084       .  S
C1112      C1116   1.487       .  S
C1112      C1113   1.408       .  A
C1113      C1114   1.407       .  A
C1113     Br1125   1.918       .  S
C1114      H1117   1.083       .  S
C1116      C1118   1.403       .  A
C1116      C1122   1.409   1_556  A
C1118      C1119   1.403   1_556  A
C1118      H1123   1.083       .  S
C1119      C1120   1.418       .  A
C1119     Br1127   1.921       .  S
C1120      C1121   1.405       .  A
C1121      C1122   1.399       .  A
C1121      H1124   1.083       .  S
C1122     Br1128   1.918       .  S
C1129      C1130   1.414       .  A
C1129      C1134   1.405       .  A
C1130      C1131   1.406       .  A
C1130     Br1146   1.920       .  S
C1131      C1132   1.406       .  A
C1131      H1135   1.082       .  S
C1132      C1136   1.486       .  S
C1132      C1133   1.408       .  A
C1133      C1134   1.398       .  A
C1133     Br1145   1.920       .  S
C1134      H1137   1.083       .  S
C1136      C1138   1.402       .  A
C1136      C1142   1.410       .  A
C1138      C1139   1.403       .  A
C1138      H1143   1.084       .  S
C1139      C1140   1.417       .  A
C1139     Br1147   1.921       .  S
C1140      C1141   1.405       .  A
C1141      C1142   1.400       .  A
C1141      H1144   1.083       .  S
C1142     Br1148   1.919       .  S
C1149      C1150   1.415       .  A
C1149      C1154   1.406       .  A
C1150      C1151   1.405   1_565  A
C1150     Br1166   1.919       .  S
C1151      C1152   1.403       .  A
C1151      H1155   1.082       .  S
C1152      C1156   1.481       .  S
C1152      C1153   1.405       .  A
C1153      C1154   1.399   1_545  A
C1153     Br1165   1.918       .  S
C1154      H1157   1.083       .  S
C1156      C1158   1.402       .  A
C1156      C1162   1.407       .  A
C1158      C1159   1.399       .  A
C1158      H1163   1.084       .  S
C1159      C1160   1.412       .  A
C1159     Br1167   1.920       .  S
C1160      C1161   1.408       .  A
C1161      C1162   1.403       .  A
C1161      H1164   1.084       .  S
C1162     Br1168   1.917       .  S
C1169      C1170   1.412       .  A
C1169      C1174   1.403       .  A
C1170      C1171   1.398       .  A
C1170     Br1186   1.922       .  S
C1171      C1172   1.400       .  A
C1171      H1175   1.083       .  S
C1172      C1176   1.476       .  S
C1172      C1173   1.408       .  A
C1173      C1174   1.400       .  A
C1173     Br1185   1.917       .  S
C1174      H1177   1.083       .  S
C1176      C1178   1.399       .  A
C1176      C1182   1.406       .  A
C1178      C1179   1.400       .  A
C1178      H1183   1.082       .  S
C1179      C1180   1.416       .  A
C1179     Br1187   1.922       .  S
C1180      C1181   1.406       .  A
C1181      C1182   1.401       .  A
C1181      H1184   1.082       .  S
C1182     Br1188   1.918       .  S
C1189      C1190   1.411       .  A
C1189      C1194   1.403       .  A
C1190      C1191   1.397   1_655  A
C1190     Br1206   1.922       .  S
C1191      C1192   1.402       .  A
C1191      H1195   1.083       .  S
C1192      C1196   1.478       .  S
C1192      C1193   1.409       .  A
C1193      C1194   1.399   1_455  A
C1193     Br1205   1.920       .  S
C1194      H1197   1.082       .  S
C1196      C1198   1.402       .  A
C1196      C1202   1.406       .  A
C1198      C1199   1.399       .  A
C1198      H1203   1.083       .  S
C1199      C1200   1.416       .  A
C1199     Br1207   1.921       .  S
C1200      C1201   1.408       .  A
C1201      C1202   1.397       .  A
C1201      H1204   1.083       .  S
C1202     Br1208   1.920       .  S
C1209      C1210   1.414       .  A
C1209      C1214   1.407       .  A
C1210      C1211   1.402       .  A
C1210     Br1226   1.920       .  S
C1211      C1212   1.403   1_556  A
C1211      H1215   1.083   1_556  S
C1212      C1216   1.482       .  S
C1212      C1213   1.407       .  A
C1213      C1214   1.400   1_554  A
C1213     Br1225   1.919       .  S
C1214      H1217   1.083       .  S
C1216      C1218   1.398       .  A
C1216      C1222   1.408       .  A
C1218      C1219   1.397       .  A
C1218      H1223   1.085       .  S
C1219      C1220   1.418       .  A
C1219     Br1227   1.922       .  S
C1220      C1221   1.409       .  A
C1221      C1222   1.405       .  A
C1221      H1224   1.084       .  S
C1222     Br1228   1.917       .  S
C1229      C1230   1.417       .  A
C1229      C1234   1.410       .  A
C1230      C1231   1.404       .  A
C1230     Br1246   1.919       .  S
C1231      C1232   1.402       .  A
C1231      H1235   1.083       .  S
C1232      C1236   1.477       .  S
C1232      C1233   1.403       .  A
C1233      C1234   1.396       .  A
C1233     Br1245   1.920       .  S
C1234      H1237   1.083       .  S
C1236      C1238   1.401       .  A
C1236      C1242   1.404       .  A
C1238      C1239   1.404       .  A
C1238      H1243   1.083       .  S
C1239      C1240   1.416       .  A
C1239     Br1247   1.919       .  S
C1240      C1241   1.408       .  A
C1241      C1242   1.397       .  A
C1241      H1244   1.083       .  S
C1242     Br1248   1.921       .  S
C1249      C1250   1.416       .  A
C1249      C1254   1.407       .  A
C1250      C1251   1.402       .  A
C1250     Br1266   1.921       .  S
C1251      C1252   1.402       .  A
C1251      H1255   1.083       .  S
C1252      C1256   1.478       .  S
C1252      C1253   1.404       .  A
C1253      C1254   1.399       .  A
C1253     Br1265   1.918       .  S
C1254      H1257   1.083       .  S
C1256      C1258   1.400       .  A
C1256      C1262   1.408       .  A
C1258      C1259   1.397       .  A
C1258      H1263   1.084       .  S
C1259      C1260   1.413   1_554  A
C1259     Br1267   1.923   1_554  S
C1260      C1261   1.404   1_556  A
C1261      C1262   1.402       .  A
C1261      H1264   1.083   1_554  S
C1262     Br1268   1.916       .  S
C1269      C1270   1.413       .  A
C1269      C1274   1.404       .  A
C1270      C1271   1.400       .  A
C1270     Br1286   1.921       .  S
C1271      C1272   1.401       .  A
C1271      H1275   1.083       .  S
C1272      C1276   1.478       .  S
C1272      C1273   1.408       .  A
C1273      C1274   1.399       .  A
C1273     Br1285   1.919       .  S
C1274      H1277   1.083       .  S
C1276      C1278   1.400       .  A
C1276      C1282   1.408       .  A
C1278      C1279   1.395       .  A
C1278      H1283   1.086       .  S
C1279      C1280   1.414       .  A
C1279     Br1287   1.922       .  S
C1280      C1281   1.406       .  A
C1281      C1282   1.402       .  A
C1281      H1284   1.084       .  S
C1282     Br1288   1.917       .  S
C1289      C1290   1.409       .  A
C1289      C1294   1.404       .  A
C1290      C1291   1.402       .  A
C1290     Br1306   1.920       .  S
C1291      C1292   1.406       .  A
C1291      H1295   1.083       .  S
C1292      C1296   1.483       .  S
C1292      C1293   1.407       .  A
C1293      C1294   1.398       .  A
C1293     Br1305   1.918       .  S
C1294      H1297   1.083       .  S
C1296      C1298   1.405       .  A
C1296      C1302   1.406       .  A
C1298      C1299   1.403       .  A
C1298      H1303   1.083       .  S
C1299      C1300   1.413       .  A
C1299     Br1307   1.919       .  S
C1300      C1301   1.407       .  A
C1301      C1302   1.397       .  A
C1301      H1304   1.083       .  S
C1302     Br1308   1.918       .  S
C1309      C1310   1.418       .  A
C1309      C1314   1.407       .  A
C1310      C1311   1.408       .  A
C1310     Br1326   1.921       .  S
C1311      C1312   1.405       .  A
C1311      H1315   1.083       .  S
C1312      C1316   1.491       .  S
C1312      C1313   1.408       .  A
C1313      C1314   1.398       .  A
C1313     Br1325   1.920       .  S
C1314      H1317   1.084       .  S
C1316      C1318   1.404       .  A
C1316      C1322   1.411       .  A
C1318      C1319   1.406       .  A
C1318      H1323   1.084       .  S
C1319      C1320   1.414       .  A
C1319     Br1327   1.918       .  S
C1320      C1321   1.406       .  A
C1321      C1322   1.402       .  A
C1321      H1324   1.084       .  S
C1322     Br1328   1.921       .  S
C1329      C1330   1.413       .  A
C1329      C1334   1.403       .  A
C1330      C1331   1.399       .  A
C1330     Br1346   1.921       .  S
C1331      C1332   1.402       .  A
C1331      H1335   1.085       .  S
C1332      C1336   1.480       .  S
C1332      C1333   1.410       .  A
C1333      C1334   1.400       .  A
C1333     Br1345   1.920       .  S
C1334      H1337   1.084       .  S
C1336      C1338   1.401       .  A
C1336      C1342   1.407       .  A
C1338      C1339   1.397       .  A
C1338      H1343   1.084       .  S
C1339      C1340   1.414       .  A
C1339     Br1347   1.921       .  S
C1340      C1341   1.407       .  A
C1341      C1342   1.401       .  A
C1341      H1344   1.083       .  S
C1342     Br1348   1.919       .  S
C1349      C1350   1.410       .  A
C1349      C1354   1.402       .  A
C1350      C1351   1.401       .  A
C1350     Br1366   1.919       .  S
C1351      C1352   1.403       .  A
C1351      H1355   1.083       .  S
C1352      C1356   1.476       .  S
C1352      C1353   1.407       .  A
C1353      C1354   1.396       .  A
C1353     Br1365   1.919       .  S
C1354      H1357   1.083       .  S
C1356      C1358   1.402       .  A
C1356      C1362   1.405   1_455  A
C1358      C1359   1.397   1_455  A
C1358      H1363   1.083       .  S
C1359      C1360   1.411       .  A
C1359     Br1367   1.919       .  S
C1360      C1361   1.410       .  A
C1361      C1362   1.400       .  A
C1361      H1364   1.083       .  S
C1362     Br1368   1.919       .  S
C1369      C1370   1.419       .  A
C1369      C1374   1.405       .  A
C1370      C1371   1.404       .  A
C1370     Br1386   1.921       .  S
C1371      C1372   1.401       .  A
C1371      H1375   1.083       .  S
C1372      C1376   1.482       .  S
C1372      C1373   1.407       .  A
C1373      C1374   1.400       .  A
C1373     Br1385   1.919       .  S
C1374      H1377   1.083       .  S
C1376      C1378   1.402       .  A
C1376      C1382   1.408       .  A
C1378      C1379   1.401       .  A
C1378      H1383   1.083       .  S
C1379      C1380   1.411       .  A
C1379     Br1387   1.920       .  S
C1380      C1381   1.405       .  A
C1381      C1382   1.401       .  A
C1381      H1384   1.084       .  S
C1382     Br1388   1.918       .  S
C1389      C1390   1.419       .  A
C1389      C1394   1.408       .  A
C1390      C1391   1.406       .  A
C1390     Br1406   1.920       .  S
C1391      C1392   1.402       .  A
C1391      H1395   1.084       .  S
C1392      C1396   1.493       .  S
C1392      C1393   1.409       .  A
C1393      C1394   1.405       .  A
C1393     Br1405   1.917       .  S
C1394      H1397   1.084       .  S
C1396      C1398   1.403       .  A
C1396      C1402   1.409       .  A
C1398      C1399   1.404       .  A
C1398      H1403   1.084       .  S
C1399      C1400   1.417       .  A
C1399     Br1407   1.923       .  S
C1400      C1401   1.407       .  A
C1401      C1402   1.408       .  A
C1401      H1404   1.084       .  S
C1402     Br1408   1.916       .  S
C1409      C1410   1.415       .  A
C1409      C1414   1.409       .  A
C1410      C1411   1.409       .  A
C1410     Br1426   1.918       .  S
C1411      C1412   1.405       .  A
C1411      H1415   1.083       .  S
C1412      C1416   1.484       .  S
C1412      C1413   1.404       .  A
C1413      C1414   1.396       .  A
C1413     Br1425   1.920       .  S
C1414      H1417   1.083       .  S
C1416      C1418   1.399       .  A
C1416      C1422   1.408       .  A
C1418      C1419   1.403       .  A
C1418      H1423   1.083       .  S
C1419      C1420   1.421       .  A
C1419     Br1427   1.922       .  S
C1420      C1421   1.407       .  A
C1421      C1422   1.404       .  A
C1421      H1424   1.083       .  S
C1422     Br1428   1.918       .  S
C1429      C1430   1.416       .  A
C1429      C1434   1.404       .  A
C1430      C1431   1.401       .  A
C1430     Br1446   1.921       .  S
C1431      C1432   1.401       .  A
C1431      H1435   1.083       .  S
C1432      C1436   1.478       .  S
C1432      C1433   1.406       .  A
C1433      C1434   1.396       .  A
C1433     Br1445   1.919       .  S
C1434      H1437   1.084       .  S
C1436      C1438   1.400       .  A
C1436      C1442   1.406       .  A
C1438      C1439   1.397       .  A
C1438      H1443   1.086       .  S
C1439      C1440   1.415       .  A
C1439     Br1447   1.921       .  S
C1440      C1441   1.407       .  A
C1441      C1442   1.401       .  A
C1441      H1444   1.084       .  S
C1442     Br1448   1.918       .  S
C1449      C1450   1.415       .  A
C1449      C1454   1.408       .  A
C1450      C1451   1.404       .  A
C1450     Br1466   1.919       .  S
C1451      C1452   1.403       .  A
C1451      H1455   1.084       .  S
C1452      C1456   1.479       .  S
C1452      C1453   1.405       .  A
C1453      C1454   1.395       .  A
C1453     Br1465   1.921       .  S
C1454      H1457   1.083       .  S
C1456      C1458   1.402       .  A
C1456      C1462   1.405       .  A
C1458      C1459   1.401       .  A
C1458      H1463   1.084       .  S
C1459      C1460   1.417       .  A
C1459     Br1467   1.920       .  S
C1460      C1461   1.410       .  A
C1461      C1462   1.398       .  A
C1461      H1464   1.083       .  S
C1462     Br1468   1.920       .  S
C1469      C1470   1.420       .  A
C1469      C1474   1.409       .  A
C1470      C1471   1.399       .  A
C1470     Br1486   1.923       .  S
C1471      C1472   1.399       .  A
C1471      H1475   1.083       .  S
C1472      C1476   1.480       .  S
C1472      C1473   1.406       .  A
C1473      C1474   1.403       .  A
C1473     Br1485   1.917       .  S
C1474      H1477   1.082       .  S
C1476      C1478   1.403       .  A
C1476      C1482   1.404       .  A
C1478      C1479   1.406       .  A
C1478      H1483   1.084       .  S
C1479      C1480   1.417       .  A
C1479     Br1487   1.920       .  S
C1480      C1481   1.408       .  A
C1481      C1482   1.394       .  A
C1481      H1484   1.084       .  S
C1482     Br1488   1.920       .  S
C1489      C1490   1.416       .  A
C1489      C1494   1.407       .  A
C1490      C1491   1.396   1_654  A
C1490     Br1506   1.922   1_554  S
C1491      C1492   1.400   1_556  A
C1491      H1495   1.085       .  S
C1492      C1496   1.476       .  S
C1492      C1493   1.406       .  A
C1493      C1494   1.398   1_455  A
C1493     Br1505   1.920       .  S
C1494      H1497   1.085       .  S
C1496      C1498   1.404   1_554  A
C1496      C1502   1.408       .  A
C1498      C1499   1.398       .  A
C1498      H1503   1.083       .  S
C1499      C1500   1.409       .  A
C1499     Br1507   1.920       .  S
C1500      C1501   1.401   1_556  A
C1501      C1502   1.394       .  A
C1501      H1504   1.084       .  S
C1502     Br1508   1.919       .  S
C1509      C1510   1.413       .  A
C1509      C1514   1.404       .  A
C1510      C1511   1.403       .  A
C1510     Br1526   1.919       .  S
C1511      C1512   1.403       .  A
C1511      H1515   1.083       .  S
C1512      C1516   1.482       .  S
C1512      C1513   1.408       .  A
C1513      C1514   1.400       .  A
C1513     Br1525   1.917       .  S
C1514      H1517   1.084       .  S
C1516      C1518   1.404       .  A
C1516      C1522   1.405       .  A
C1518      C1519   1.406       .  A
C1518      H1523   1.083       .  S
C1519      C1520   1.415       .  A
C1519     Br1527   1.919       .  S
C1520      C1521   1.406       .  A
C1521      C1522   1.398       .  A
C1521      H1524   1.084   1_556  S
C1522     Br1528   1.918       .  S
C1529      C1530   1.414       .  A
C1529      C1534   1.405       .  A
C1530      C1531   1.394       .  A
C1530     Br1546   1.923       .  S
C1531      C1532   1.397       .  A
C1531      H1535   1.084       .  S
C1532      C1536   1.471       .  S
C1532      C1533   1.407       .  A
C1533      C1534   1.401       .  A
C1533     Br1545   1.917       .  S
C1534      H1537   1.083       .  S
C1536      C1538   1.400       .  A
C1536      C1542   1.406       .  A
C1538      C1539   1.398       .  A
C1538      H1543   1.084       .  S
C1539      C1540   1.411       .  A
C1539     Br1547   1.921       .  S
C1540      C1541   1.402       .  A
C1541      C1542   1.398       .  A
C1541      H1544   1.083       .  S
C1542     Br1548   1.918       .  S
C1549      C1550   1.414   1_554  A
C1549      C1554   1.408       .  A
C1550      C1551   1.403   1_556  A
C1550     Br1566   1.920       .  S
C1551      C1552   1.406       .  A
C1551      H1555   1.084       .  S
C1552      C1556   1.487       .  S
C1552      C1553   1.408       .  A
C1553      C1554   1.397       .  A
C1553     Br1565   1.921       .  S
C1554      H1557   1.084       .  S
C1556      C1558   1.406   1_554  A
C1556      C1562   1.410       .  A
C1558      C1559   1.400   1_556  A
C1558      H1563   1.083       .  S
C1559      C1560   1.409       .  A
C1559     Br1567   1.920   1_554  S
C1560      C1561   1.404       .  A
C1561      C1562   1.399       .  A
C1561      H1564   1.084       .  S
C1562     Br1568   1.919       .  S
C1569      C1570   1.415       .  A
C1569      C1574   1.407       .  A
C1570      C1571   1.400       .  A
C1570     Br1586   1.921       .  S
C1571      C1572   1.403       .  A
C1571      H1575   1.083       .  S
C1572      C1576   1.482       .  S
C1572      C1573   1.408       .  A
C1573      C1574   1.397       .  A
C1573     Br1585   1.921       .  S
C1574      H1577   1.083       .  S
C1576      C1578   1.405       .  A
C1576      C1582   1.411       .  A
C1578      C1579   1.399       .  A
C1578      H1583   1.084       .  S
C1579      C1580   1.409       .  A
C1579     Br1587   1.921       .  S
C1580      C1581   1.400       .  A
C1581      C1582   1.397       .  A
C1581      H1584   1.083       .  S
C1582     Br1588   1.919       .  S
C1589      C1590   1.418       .  A
C1589      C1594   1.407       .  A
C1590      C1591   1.405       .  A
C1590     Br1606   1.921       .  S
C1591      C1592   1.404       .  A
C1591      H1595   1.083       .  S
C1592      C1596   1.481       .  S
C1592      C1593   1.404       .  A
C1593      C1594   1.396       .  A
C1593     Br1605   1.920       .  S
C1594      H1597   1.083       .  S
C1596      C1598   1.403       .  A
C1596      C1602   1.405       .  A
C1598      C1599   1.403       .  A
C1598      H1603   1.083       .  S
C1599      C1600   1.415       .  A
C1599     Br1607   1.919       .  S
C1600      C1601   1.408       .  A
C1601      C1602   1.397       .  A
C1601      H1604   1.083       .  S
C1602     Br1608   1.920       .  S
C1609      C1610   1.418       .  A
C1609      C1614   1.406       .  A
C1610      C1611   1.400       .  A
C1610     Br1626   1.922       .  S
C1611      C1612   1.400       .  A
C1611      H1615   1.084       .  S
C1612      C1616   1.481       .  S
C1612      C1613   1.408       .  A
C1613      C1614   1.400       .  A
C1613     Br1625   1.919       .  S
C1614      H1617   1.084       .  S
C1616      C1618   1.403       .  A
C1616      C1622   1.406       .  A
C1618      C1619   1.405       .  A
C1618      H1623   1.083       .  S
C1619      C1620   1.416       .  A
C1619     Br1627   1.920       .  S
C1620      C1621   1.407       .  A
C1621      C1622   1.397       .  A
C1621      H1624   1.083       .  S
C1622     Br1628   1.921       .  S
C1629      C1630   1.412       .  A
C1629      C1634   1.406       .  A
C1630      C1631   1.397       .  A
C1630     Br1646   1.921       .  S
C1631      C1632   1.401       .  A
C1631      H1635   1.084       .  S
C1632      C1636   1.481       .  S
C1632      C1633   1.409       .  A
C1633      C1634   1.403       .  A
C1633     Br1645   1.918       .  S
C1634      H1637   1.083       .  S
C1636      C1638   1.401       .  A
C1636      C1642   1.407       .  A
C1638      C1639   1.399       .  A
C1638      H1643   1.084       .  S
C1639      C1640   1.415       .  A
C1639     Br1647   1.921       .  S
C1640      C1641   1.408       .  A
C1641      C1642   1.402       .  A
C1641      H1644   1.083       .  S
C1642     Br1648   1.918       .  S
C1649      C1650   1.413       .  A
C1649      C1654   1.405       .  A
C1650      C1651   1.396       .  A
C1650     Br1666   1.922       .  S
C1651      C1652   1.399       .  A
C1651      H1655   1.085       .  S
C1652      C1656   1.474       .  S
C1652      C1653   1.406       .  A
C1653      C1654   1.402       .  A
C1653     Br1665   1.918       .  S
C1654      H1657   1.085       .  S
C1656      C1658   1.400       .  A
C1656      C1662   1.406       .  A
C1658      C1659   1.398       .  A
C1658      H1663   1.083       .  S
C1659      C1660   1.413       .  A
C1659     Br1667   1.921       .  S
C1660      C1661   1.406       .  A
C1661      C1662   1.400       .  A
C1661      H1664   1.083       .  S
C1662     Br1668   1.919       .  S
C1669      C1670   1.412       .  A
C1669      C1674   1.403       .  A
C1670      C1671   1.402       .  A
C1670     Br1686   1.920       .  S
C1671      C1672   1.401       .  A
C1671      H1675   1.084       .  S
C1672      C1676   1.479       .  S
C1672      C1673   1.409       .  A
C1673      C1674   1.399       .  A
C1673     Br1685   1.920       .  S
C1674      H1677   1.084       .  S
C1676      C1678   1.402       .  A
C1676      C1682   1.407       .  A
C1678      C1679   1.404       .  A
C1678      H1683   1.083       .  S
C1679      C1680   1.413       .  A
C1679     Br1687   1.919       .  S
C1680      C1681   1.403       .  A
C1681      C1682   1.396       .  A
C1681      H1684   1.084       .  S
C1682     Br1688   1.920       .  S
C1689      C1690   1.413       .  A
C1689      C1694   1.403       .  A
C1690      C1691   1.400       .  A
C1690     Br1706   1.922       .  S
C1691      C1692   1.401       .  A
C1691      H1695   1.083       .  S
C1692      C1696   1.478       .  S
C1692      C1693   1.408       .  A
C1693      C1694   1.400       .  A
C1693     Br1705   1.918       .  S
C1694      H1697   1.083       .  S
C1696      C1698   1.402       .  A
C1696      C1702   1.405       .  A
C1698      C1699   1.403       .  A
C1698      H1703   1.083       .  S
C1699      C1700   1.415       .  A
C1699     Br1707   1.920       .  S
C1700      C1701   1.406       .  A
C1701      C1702   1.396       .  A
C1701      H1704   1.082       .  S
C1702     Br1708   1.919       .  S
C1709      C1710   1.415       .  A
C1709      C1714   1.405       .  A
C1710      C1711   1.400       .  A
C1710     Br1726   1.920       .  S
C1711      C1712   1.400       .  A
C1711      H1715   1.085       .  S
C1712      C1716   1.474       .  S
C1712      C1713   1.407       .  A
C1713      C1714   1.396       .  A
C1713     Br1725   1.920       .  S
C1714      H1717   1.085       .  S
C1716      C1718   1.404       .  A
C1716      C1722   1.404       .  A
C1718      C1719   1.404       .  A
C1718      H1723   1.083       .  S
C1719      C1720   1.411       .  A
C1719     Br1727   1.919       .  S
C1720      C1721   1.403       .  A
C1721      C1722   1.393       .  A
C1721      H1724   1.084       .  S
C1722     Br1728   1.919       .  S
C1729      C1730   1.418       .  A
C1729      C1734   1.408       .  A
C1730      C1731   1.400       .  A
C1730     Br1746   1.922       .  S
C1731      C1732   1.401       .  A
C1731      H1735   1.084       .  S
C1732      C1736   1.483       .  S
C1732      C1733   1.407       .  A
C1733      C1734   1.400       .  A
C1733     Br1745   1.919       .  S
C1734      H1737   1.083       .  S
C1736      C1738   1.402       .  A
C1736      C1742   1.409       .  A
C1738      C1739   1.401       .  A
C1738      H1743   1.083       .  S
C1739      C1740   1.412       .  A
C1739     Br1747   1.919       .  S
C1740      C1741   1.406       .  A
C1741      C1742   1.401       .  A
C1741      H1744   1.084       .  S
C1742     Br1748   1.920       .  S
C1749      C1750   1.413       .  A
C1749      C1754   1.405       .  A
C1750      C1751   1.397       .  A
C1750     Br1766   1.921       .  S
C1751      C1752   1.399       .  A
C1751      H1755   1.083       .  S
C1752      C1756   1.474       .  S
C1752      C1753   1.407       .  A
C1753      C1754   1.399       .  A
C1753     Br1765   1.919       .  S
C1754      H1757   1.083       .  S
C1756      C1758   1.402       .  A
C1756      C1762   1.406   1_545  A
C1758      C1759   1.399   1_545  A
C1758      H1763   1.084       .  S
C1759      C1760   1.411       .  A
C1759     Br1767   1.920       .  S
C1760      C1761   1.404       .  A
C1761      C1762   1.396       .  A
C1761      H1764   1.084       .  S
C1762     Br1768   1.919       .  S
C1769      C1770   1.415       .  A
C1769      C1774   1.405       .  A
C1770      C1771   1.406       .  A
C1770     Br1786   1.920       .  S
C1771      C1772   1.405       .  A
C1771      H1775   1.082       .  S
C1772      C1776   1.489       .  S
C1772      C1773   1.409       .  A
C1773      C1774   1.398       .  A
C1773     Br1785   1.921       .  S
C1774      H1777   1.083       .  S
C1776      C1778   1.406       .  A
C1776      C1782   1.409       .  A
C1778      C1779   1.408       .  A
C1778      H1783   1.083       .  S
C1779      C1780   1.415       .  A
C1779     Br1787   1.919       .  S
C1780      C1781   1.404       .  A
C1781      C1782   1.396       .  A
C1781      H1784   1.083       .  S
C1782     Br1788   1.921       .  S
C1789      C1790   1.418       .  A
C1789      C1794   1.409       .  A
C1790      C1791   1.397       .  A
C1790     Br1806   1.922       .  S
C1791      C1792   1.399       .  A
C1791      H1795   1.085       .  S
C1792      C1796   1.479       .  S
C1792      C1793   1.406       .  A
C1793      C1794   1.402       .  A
C1793     Br1805   1.917       .  S
C1794      H1797   1.084       .  S
C1796      C1798   1.399       .  A
C1796      C1802   1.406       .  A
C1798      C1799   1.399       .  A
C1798      H1803   1.083       .  S
C1799      C1800   1.418       .  A
C1799     Br1807   1.922       .  S
C1800      C1801   1.407       .  A
C1801      C1802   1.401       .  A
C1801      H1804   1.082       .  S
C1802     Br1808   1.918       .  S
C1809      C1810   1.414       .  A
C1809      C1814   1.406       .  A
C1810      C1811   1.403       .  A
C1810     Br1826   1.919       .  S
C1811      C1812   1.403       .  A
C1811      H1815   1.084       .  S
C1812      C1816   1.482       .  S
C1812      C1813   1.408       .  A
C1813      C1814   1.397       .  A
C1813     Br1825   1.921       .  S
C1814      H1817   1.084       .  S
C1816      C1818   1.401       .  A
C1816      C1822   1.411       .  A
C1818      C1819   1.399       .  A
C1818      H1823   1.083       .  S
C1819      C1820   1.411       .  A
C1819     Br1827   1.920       .  S
C1820      C1821   1.403       .  A
C1821      C1822   1.401       .  A
C1821      H1824   1.083       .  S
C1822     Br1828   1.920       .  S
C1829      C1830   1.414       .  A
C1829      C1834   1.408       .  A
C1830      C1831   1.400       .  A
C1830     Br1846   1.920   1_556  S
C1831      C1832   1.401       .  A
C1831      H1835   1.083       .  S
C1832      C1836   1.483       .  S
C1832      C1833   1.407       .  A
C1833      C1834   1.404       .  A
C1833     Br1845   1.919       .  S
C1834      H1837   1.082       .  S
C1836      C1838   1.400       .  A
C1836      C1842   1.409       .  A
C1838      C1839   1.400       .  A
C1838      H1843   1.083       .  S
C1839      C1840   1.415       .  A
C1839     Br1847   1.921       .  S
C1840      C1841   1.406       .  A
C1841      C1842   1.404       .  A
C1841      H1844   1.082       .  S
C1842     Br1848   1.918       .  S
C1849      C1850   1.418       .  A
C1849      C1854   1.407       .  A
C1850      C1851   1.399       .  A
C1850     Br1866   1.923       .  S
C1851      C1852   1.402       .  A
C1851      H1855   1.083       .  S
C1852      C1856   1.490       .  S
C1852      C1853   1.411       .  A
C1853      C1854   1.405       .  A
C1853     Br1865   1.918       .  S
C1854      H1857   1.083       .  S
C1856      C1858   1.402       .  A
C1856      C1862   1.412       .  A
C1858      C1859   1.400       .  A
C1858      H1863   1.084       .  S
C1859      C1860   1.414       .  A
C1859     Br1867   1.920       .  S
C1860      C1861   1.406       .  A
C1861      C1862   1.404       .  A
C1861      H1864   1.084       .  S
C1862     Br1868   1.920       .  S
C1869      C1870   1.417       .  A
C1869      C1874   1.410       .  A
C1870      C1871   1.407       .  A
C1870     Br1886   1.918       .  S
C1871      C1872   1.404       .  A
C1871      H1875   1.083       .  S
C1872      C1876   1.485       .  S
C1872      C1873   1.405       .  A
C1873      C1874   1.399       .  A
C1873     Br1885   1.919       .  S
C1874      H1877   1.083       .  S
C1876      C1878   1.400       .  A
C1876      C1882   1.406       .  A
C1878      C1879   1.402       .  A
C1878      H1883   1.083       .  S
C1879      C1880   1.420       .  A
C1879     Br1887   1.922       .  S
C1880      C1881   1.409       .  A
C1881      C1882   1.404       .  A
C1881      H1884   1.082       .  S
C1882     Br1888   1.917       .  S
C1889      C1890   1.413   1_556  A
C1889      C1894   1.406       .  A
C1890      C1891   1.399       .  A
C1890     Br1906   1.922       .  S
C1891      C1892   1.401   1_565  A
C1891      H1895   1.084       .  S
C1892      C1896   1.483       .  S
C1892      C1893   1.409   1_554  A
C1893      C1894   1.405   1_545  A
C1893     Br1905   1.917       .  S
C1894      H1897   1.084       .  S
C1896      C1898   1.401       .  A
C1896      C1902   1.408   1_554  A
C1898      C1899   1.402       .  A
C1898      H1903   1.084       .  S
C1899      C1900   1.415       .  A
C1899     Br1907   1.921       .  S
C1900      C1901   1.405       .  A
C1901      C1902   1.401   1_554  A
C1901      H1904   1.084   1_554  S
C1902     Br1908   1.918       .  S
