geometry optimzed in LAMMPS
_audit_creation_date              2020-12-01 
_audit_creation_method            'lammps2cif' 
_symmetry_space_group_name_H-M    'P1' 
_symmetry_Int_Tables_number       1 
_symmetry_cell_setting            triclinic 
loop_ 
_symmetry_equiv_pos_as_xyz 
  x,y,z 
_cell_length_a                    48.67677795 
_cell_length_b                    49.027382948903956 
_cell_length_c                    48.92999936406224 
_cell_angle_alpha                 90.2671681809776 
_cell_angle_beta                  89.88034662805968 
_cell_angle_gamma                 119.68027349084424 
loop_ 
_atom_site_label 
_atom_site_type_symbol 
_atom_site_fract_x 
_atom_site_fract_y 
_atom_site_fract_z 
_atom_site_charge 
O1          O  0.12916534  0.08823147  0.10861846    -0.56800
C2          C  0.09535333  0.09554994  0.03508715     0.75800
O3          O  0.20378314  0.14948438  0.05251943    -0.57900
C4          C  0.15423085  0.09155381  0.11954926     0.75800
C5          C  0.14936423  0.04767824  0.03668764     0.78200
Cd6        Cd  0.15096940  0.10224973  0.06202010     1.37500
O7          O  0.09717641  0.09541207  0.06094134    -0.56800
O8          O  0.13424899  0.04611059  0.05819676    -0.55600
C9          C  0.19517474  0.16961356  0.05739105     0.78200
O10         O  0.16783614  0.07508781  0.02771956    -0.58000
O11         O  0.11909856  0.09847337  0.02198131    -0.56400
O12         O  0.17793913  0.10059194  0.10394095    -0.56400
O13         O  0.16635070  0.15861479  0.06347049    -0.55600
O14         O  0.10695686  0.50558464  0.29141371    -0.56800
C15         C  0.16027398  0.06136231  0.23270633     0.75800
O16         O  0.17350326  0.08835535  0.32724658    -0.57900
C17         C  0.10781739  0.49956295  0.31647578     0.75800
C18         C  0.20683412  0.02727166  0.29150264     0.78200
Cd19       Cd  0.16156262  0.04918244  0.28967210     1.37500
O20         O  0.13623190  0.03995699  0.24480621    -0.56800
O21         O  0.17773500  0.00959631  0.28670909    -0.55600
C22         C  0.15837133  0.10032728  0.31623132     0.78200
O23         O  0.21578335  0.05610481  0.29557037    -0.58000
O24         O  0.18522854  0.07627656  0.24682823    -0.56400
O25         O  0.13365110  0.01647208  0.32881994    -0.56400
O26         O  0.14808623  0.09088169  0.29241355    -0.55600
O27         O  0.49127017  0.10689773  0.38991462    -0.56800
C28         C  0.05531630  0.15812253  0.44919237     0.75800
O29         O  0.08402731  0.17319634  0.35845772    -0.57900
C30         C  0.48955194  0.10596036  0.36404513     0.75800
C31         C  0.01819093  0.20409717  0.38993534     0.78200
Cd32       Cd  0.03978019  0.15821077  0.39244030     1.37500
O33         O  0.03384580  0.13363927  0.43760566    -0.56800
O34         O  0.00079189  0.17620218  0.39797701    -0.55600
C35         C  0.09295708  0.15516626  0.36887837     0.78200
O36         O  0.04610942  0.21124739  0.38288783    -0.58000
O37         O  0.06844244  0.18281435  0.43483379    -0.56400
O38         O  0.01136018  0.12904016  0.35146635    -0.56400
O39         O  0.07853047  0.14070797  0.39018101    -0.55600
O40         O  0.09285839  0.10513406  0.62352467    -0.56800
C41         C  0.09026019  0.15895729  0.56252630     0.75800
O42         O  0.04718497  0.14404475  0.62224384    -0.57900
C43         C  0.09810311  0.10585582  0.64895899     0.75800
C44         C  0.17065871  0.20573196  0.62104887     0.78200
Cd45       Cd  0.10307593  0.15942966  0.62023468     1.37500
O46         O  0.08816225  0.13491681  0.57416836    -0.56800
O47         O  0.15986198  0.17698630  0.61550276    -0.55600
C48         C  0.04732067  0.15682827  0.64473236     0.78200
O49         O  0.15011923  0.21365245  0.62697579    -0.58000
O50         O  0.09885368  0.18298150  0.57750465    -0.56400
O51         O  0.10632473  0.13167702  0.66100802    -0.56400
O52         O  0.07429988  0.17372136  0.65558001    -0.55600
O53         O  0.44636050  0.08644850  0.90674977    -0.56800
C54         C  0.49140034  0.09629343  0.97835127     0.75800
O55         O  0.48103162  0.15851954  0.95414449    -0.57900
C56         C  0.42421667  0.08957311  0.89634386     0.75800
C57         C  0.39041613  0.04752337  0.98157684     0.78200
Cd58       Cd  0.44069646  0.10222173  0.95372994     1.37500
O59         O  0.48836556  0.09539789  0.95253236    -0.56800
O60         O  0.40362076  0.07438644  0.99290402    -0.55600
C61         C  0.46309489  0.16987367  0.95846998     0.78200
O62         O  0.39795144  0.04692681  0.95695246    -0.58000
O63         O  0.47123676  0.09981349  0.99193409    -0.56400
O64         O  0.41036955  0.09931249  0.91233232    -0.56400
O65         O  0.43395888  0.14990706  0.96142094    -0.55600
O66         O  0.38147829  0.50309006  0.72262741    -0.56800
C67         C  0.38551604  0.05897376  0.78283239     0.75800
O68         O  0.40081175  0.08842923  0.68765865    -0.57900
C69         C  0.37762792  0.49908096  0.69698301     0.75800
C70         C  0.30611479  0.02883653  0.71984358     0.78200
Cd71       Cd  0.37324741  0.04906625  0.72461133     1.37500
O72         O  0.38941718  0.03877741  0.76968203    -0.56800
O73         O  0.31701041  0.01022306  0.71970328    -0.55600
C74         C  0.42775657  0.10111912  0.69899619     0.78200
O75         O  0.32639087  0.05783668  0.72166002    -0.58000
O76         O  0.37443350  0.07334667  0.76934343    -0.56400
O77         O  0.37215590  0.01835640  0.68434777    -0.56400
O78         O  0.42845091  0.09226435  0.72302287    -0.55600
O79         O  0.38333879  0.00217312  0.28068246    -0.56800
C80         C  0.33193805  0.43462527  0.22554304     0.75800
O81         O  0.32322494  0.41260360  0.31924757    -0.57900
C82         C  0.38810970  0.00227625  0.30615462     0.75800
C83         C  0.28997032  0.47412337  0.28816196     0.78200
Cd84       Cd  0.33400735  0.45108832  0.28175738     1.37500
O85         O  0.35786657  0.45113816  0.23797563    -0.56800
O86         O  0.31777601  0.49062771  0.27918719    -0.55600
C87         C  0.33822110  0.40046494  0.30802607     0.78200
O88         O  0.28175178  0.44593238  0.29439700    -0.58000
O89         O  0.30684086  0.42716156  0.23887200    -0.56400
O90         O  0.36862945  0.47831414  0.31930536    -0.56400
O91         O  0.34752587  0.40910545  0.28385581    -0.55600
O92         O  0.34943431  0.38574430  0.10628947    -0.56800
C93         C  0.38061962  0.37328964  0.03400443     0.75800
O94         O  0.27412893  0.32492220  0.05038367    -0.57900
C95         C  0.32627608  0.38743336  0.11628508     0.75800
C96         C  0.33417667  0.42841079  0.03580894     0.78200
Cd97       Cd  0.32742466  0.37156774  0.06032979     1.37500
O98         O  0.37994749  0.37651335  0.05968263    -0.56800
O99         O  0.35047479  0.42814636  0.05573953    -0.55600
C100        C  0.28157681  0.30465664  0.05796124     0.78200
O101        O  0.31285937  0.40171179  0.02719604    -0.58000
O102        O  0.35653015  0.36919548  0.02077644    -0.56400
O103        O  0.30285195  0.37982072  0.10064456    -0.56400
O104        O  0.30963371  0.31546300  0.06635735    -0.55600
O105        O  0.03217324  0.39314785  0.91029386    -0.56800
C106        C  0.48804857  0.37621169  0.98091028     0.75800
O107        O  0.04478051  0.32584868  0.96371517    -0.57900
C108        C  0.05483510  0.39218883  0.89834251     0.75800
C109        C  0.09150811  0.42951029  0.98081867     0.78200
Cd110      Cd  0.03958673  0.37406919  0.95462670     1.37500
O111        O  0.49196625  0.37939022  0.95527050    -0.56800
O112        O  0.08137402  0.42943080  0.95709081    -0.55600
C113        C  0.01674959  0.30614292  0.95632116     0.78200
O114        O  0.07958970  0.40287806  0.99233614    -0.58000
O115        O  0.00836385  0.37274289  0.99414935    -0.56400
O116        O  0.06924918  0.38127206  0.91211814    -0.56400
O117        O  0.00048713  0.31789299  0.94759841    -0.55600
O118        O  0.09571417  0.99854941  0.73096247    -0.56800
C119        C  0.08829499  0.43365947  0.78640115     0.75800
O120        O  0.07361227  0.40957854  0.69322376    -0.57900
C121        C  0.09586197  0.00134026  0.70521161     0.75800
C122        C  0.16965794  0.47590092  0.72513286     0.78200
Cd123      Cd  0.10138686  0.45106543  0.72969309     1.37500
O124        O  0.08400072  0.45486261  0.77598011    -0.56800
O125        O  0.15737741  0.49051853  0.73645391    -0.55600
C126        C  0.04607477  0.40103330  0.70237801     0.78200
O127        O  0.15027494  0.44879988  0.71580767    -0.58000
O128        O  0.09927553  0.42072585  0.77066732    -0.56400
O129        O  0.09852721  0.48097328  0.69128516    -0.56400
O130        O  0.04494468  0.41337042  0.72477864    -0.55600
O131        O  0.39916730  0.36646845  0.57235448    -0.56800
C132        C  0.37687038  0.39428125  0.64120733     0.75800
O133        O  0.32707816  0.28619076  0.62167380    -0.57900
C134        C  0.39095194  0.34137816  0.55906686     0.75800
C135        C  0.42920792  0.34320227  0.64241612     0.78200
Cd136      Cd  0.37441077  0.34030445  0.61549783     1.37500
O137        O  0.37458502  0.39063952  0.61547948    -0.56800
O138        O  0.43092191  0.35648536  0.61994096    -0.55600
C139        C  0.30646761  0.29461520  0.61816754     0.78200
O140        O  0.40147619  0.32545175  0.65153638    -0.58000
O141        O  0.37793101  0.37291511  0.65479609    -0.56400
O142        O  0.37381457  0.31582138  0.57146074    -0.56400
O143        O  0.31729929  0.32358289  0.61392934    -0.55600
O144        O  0.49940933  0.39168040  0.39461741    -0.56800
C145        C  0.43250156  0.33967163  0.44883015     0.75800
O146        O  0.41207025  0.32839097  0.35436480    -0.57900
C147        C  0.50116229  0.39581443  0.36896959     0.75800
C148        C  0.47111362  0.29273413  0.38962705     0.78200
Cd149      Cd  0.45072841  0.33986921  0.39283553     1.37500
O150        O  0.45825665  0.36176176  0.43955828    -0.56800
O151        O  0.48961315  0.32134488  0.39503694    -0.55600
C152        C  0.40038967  0.34410244  0.36498379     0.78200
O153        O  0.44257563  0.28533242  0.38512295    -0.58000
O154        O  0.41623367  0.31728736  0.43251039    -0.56400
O155        O  0.47953555  0.37428324  0.35479827    -0.56400
O156        O  0.41027014  0.35506990  0.38859835    -0.55600
C157        C  0.38052385  0.31980964  0.51180055    -0.20300
C158        C  0.40134696  0.34175385  0.53075810    -0.08300
C159        C  0.43252674  0.36300218  0.52278702     0.30500
C160        C  0.44254457  0.36220039  0.49613308    -0.20300
C161        C  0.42173066  0.34018251  0.47705154    -0.08300
C162        C  0.39042893  0.31905743  0.48513623     0.30500
F163        F  0.36924409  0.29787418  0.46726225    -0.18900
H164        H  0.35636815  0.30326675  0.51764818     0.18900
H165        H  0.46681515  0.37860954  0.49051556     0.18900
F166        F  0.45363510  0.38352897  0.54110710    -0.18800
C167        C  0.48742612  0.36142026  0.64433201    -0.20300
C168        C  0.45838289  0.35076094  0.65798525    -0.08300
C169        C  0.45855720  0.35286002  0.68664262     0.30500
C170        C  0.48719853  0.36724949  0.70103758    -0.20300
C171        C  0.01638245  0.37966966  0.68734993    -0.08300
C172        C  0.01614927  0.37543558  0.65883171     0.30500
F173        F  0.04367098  0.38707962  0.64467909    -0.18900
H174        H  0.48799219  0.36029605  0.62222025     0.18900
H175        H  0.48654679  0.37022980  0.72294786     0.18900
F176        F  0.43127537  0.34389707  0.70056437    -0.18800
C177        C  0.09624841  0.41106483  0.82935891    -0.20300
C178        C  0.08053272  0.42424032  0.81533117    -0.08300
C179        C  0.05710612  0.42786026  0.82909170     0.30500
C180        C  0.04878683  0.41726383  0.85596933    -0.20300
C181        C  0.06411595  0.40354489  0.86991002    -0.08300
C182        C  0.08861209  0.40135173  0.85651214     0.32900
F183        F  0.10531927  0.38992722  0.86959464    -0.18900
H184        H  0.11479393  0.40861430  0.81936121     0.18900
H185        H  0.03023093  0.41981341  0.86588923     0.18900
F186        F  0.04160802  0.44082626  0.81633790    -0.18800
C187        C  0.43534296  0.37289609  0.97899979    -0.20300
C188        C  0.46092084  0.37604349  0.99458994    -0.08300
C189        C  0.45987169  0.37827541  0.02323690     0.30500
C190        C  0.43375592  0.37751407  0.03582996    -0.20300
C191        C  0.40809837  0.37422833  0.02025215    -0.08300
C192        C  0.40908532  0.37182700  0.99160642     0.30500
F193        F  0.38472628  0.36835924  0.97571550    -0.18900
H194        H  0.43546222  0.37085988  0.95691420     0.18900
H195        H  0.43360605  0.37939149  0.05792592     0.18900
F196        F  0.48411305  0.38142117  0.03911899    -0.18800
C197        C  0.36369780  0.36596403  0.36506331    -0.20300
C198        C  0.37815496  0.35164061  0.35046650    -0.08300
C199        C  0.37482177  0.34927053  0.32184507     0.30500
C200        C  0.35964563  0.36327354  0.30821147    -0.20300
C201        C  0.34719135  0.37956745  0.32276776    -0.08300
C202        C  0.34841696  0.37977910  0.35149043     0.30500
F203        F  0.33739053  0.39571023  0.36644803    -0.18900
H204        H  0.36578180  0.36811297  0.38712570     0.18900
H205        H  0.35911103  0.36276975  0.28605944     0.18900
F206        F  0.38824260  0.33558678  0.30685677    -0.18800
C207        C  0.35519605  0.41072477  0.15969409    -0.20300
C208        C  0.32717497  0.39882933  0.14442404    -0.08300
C209        C  0.30096256  0.39957559  0.15581786     0.30500
C210        C  0.30286921  0.41173902  0.18204631    -0.20300
C211        C  0.33090949  0.42363582  0.19726683    -0.08300
C212        C  0.35720836  0.42318439  0.18577370     0.30500
F213        F  0.38465842  0.43407546  0.19991176    -0.18900
H214        H  0.37581311  0.41063898  0.15135147     0.18900
H215        H  0.28230813  0.41182731  0.19048049     0.18900
F216        F  0.27347048  0.38855944  0.14173012    -0.18800
C217        C  0.36894359  0.46632273  0.65504051    -0.20300
C218        C  0.37886527  0.47308395  0.68244237    -0.08300
C219        C  0.38912819  0.45432633  0.69573086     0.30500
C220        C  0.38860216  0.42894608  0.68208990    -0.20300
C221        C  0.37814325  0.42186145  0.65489097    -0.08300
C222        C  0.36856484  0.44101033  0.64134892     0.30500
F223        F  0.35794690  0.43477124  0.61517427    -0.18900
H224        H  0.36089645  0.48033961  0.64426914     0.18900
H225        H  0.39645404  0.41478719  0.69288532     0.18900
F226        F  0.39976342  0.46047713  0.72188514    -0.18800
C227        C  0.21797918  0.47436103  0.70881349    -0.20300
C228        C  0.20473727  0.49012944  0.72291202    -0.08300
C229        C  0.22542742  0.01972814  0.73468473     0.30500
C230        C  0.25833062  0.03295091  0.73237630    -0.20300
C231        C  0.27143893  0.01670466  0.71898754    -0.08300
C232        C  0.25089227  0.48735949  0.70696655     0.30500
F233        F  0.26261316  0.47113963  0.69337177    -0.18900
H234        H  0.20285246  0.45177120  0.69939178     0.18900
H235        H  0.27357596  0.05534749  0.74208061     0.18900
F236        F  0.21403985  0.03569290  0.74912780    -0.18800
C237        C  0.50873907  0.22478761  0.96354835    -0.20300
C238        C  0.47608099  0.20463636  0.95946315    -0.08300
C239        C  0.45691595  0.21824254  0.95502012     0.30500
C240        C  0.47034396  0.25108196  0.95399315    -0.20300
C241        C  0.00309600  0.27126436  0.95782246    -0.08300
C242        C  0.02205728  0.25760531  0.96302533     0.30500
F243        F  0.05362714  0.27585116  0.96715189    -0.18900
H244        H  0.52412924  0.21510533  0.96711265     0.18900
H245        H  0.45498940  0.26073410  0.95014847     0.18900
F246        F  0.42534676  0.19991045  0.95083554    -0.18800
C247        C  0.35810171  0.48676422  0.03794842    -0.20300
C248        C  0.34158238  0.45868781  0.02288079    -0.08300
C249        C  0.33678026  0.46057065  0.99479669     0.30500
C250        C  0.35084115  0.98985936  0.98174116    -0.20300
C251        C  0.36943739  0.01786827  0.99646963    -0.08300
C252        C  0.37166866  0.01604603  0.02501774     0.30500
F253        F  0.38923960  0.04229541  0.04018544    -0.18900
H254        H  0.36194797  0.48600838  0.05966906     0.18900
H255        H  0.34857998  0.99050317  0.95976845     0.18900
F256        F  0.32089491  0.43408821  0.97951547    -0.18800
C257        C  0.41495398  0.05704202  0.82401673    -0.20300
C258        C  0.39448409  0.06612786  0.81211288    -0.08300
C259        C  0.38412359  0.08328222  0.82811791     0.30500
C260        C  0.39388000  0.09076388  0.85537975    -0.20300
C261        C  0.41457646  0.08189114  0.86721854    -0.08300
C262        C  0.42517675  0.06503072  0.85110449     0.30500
F263        F  0.44522779  0.05599381  0.86152291    -0.18900
H264        H  0.42360345  0.04411717  0.81212323     0.18900
H265        H  0.38531218  0.10378963  0.86724772     0.18900
F266        F  0.36441210  0.09267425  0.81753808    -0.18800
C267        C  0.21676179  0.26106740  0.62108665    -0.20300
C268        C  0.20539988  0.22853539  0.62037316    -0.08300
C269        C  0.22763581  0.21805746  0.61845584     0.30500
C270        C  0.26022584  0.23954466  0.61797926    -0.20300
C271        C  0.27163750  0.27205824  0.61883717    -0.08300
C272        C  0.24937912  0.28259799  0.62002724     0.30500
F273        F  0.25899944  0.31374160  0.62035847    -0.18900
H274        H  0.20035990  0.26991306  0.62217944     0.18900
H275        H  0.27657936  0.23065667  0.61669112     0.18900
F276        F  0.21802112  0.18694317  0.61721197    -0.18800
C277        C  0.98870840  0.13382525  0.64288470    -0.20300
C278        C  0.01699119  0.15000071  0.65790850    -0.08300
C279        C  0.01507060  0.15486921  0.68606389     0.30500
C280        C  0.48553693  0.14102693  0.69915225    -0.20300
C281        C  0.45743580  0.12260715  0.68438559    -0.08300
C282        C  0.45926200  0.12042846  0.65585639     0.30500
F283        F  0.43285122  0.10272754  0.64078241    -0.18900
H284        H  0.98935744  0.12986143  0.62115685     0.18900
H285        H  0.48477790  0.14319935  0.72114285     0.18900
F286        F  0.04166192  0.17080068  0.70134039    -0.18800
C287        C  0.10002929  0.07958852  0.69222219    -0.20300
C288        C  0.09512553  0.07819349  0.66378532    -0.08300
C289        C  0.08789474  0.05032087  0.64973197     0.30500
C290        C  0.08747908  0.02527371  0.66355530    -0.20300
C291        C  0.09364432  0.02712732  0.69173268    -0.08300
C292        C  0.09901062  0.05421144  0.70616742     0.30500
F293        F  0.10429227  0.05663730  0.73353523    -0.18900
H294        H  0.10509002  0.10052804  0.70366968     0.18900
H295        H  0.08265421  0.00444446  0.65203919     0.18900
F296        F  0.08178395  0.04734153  0.62250336    -0.18800
C297        C  0.47349835  0.21600381  0.39016928    -0.20300
C298        C  0.00622056  0.22681980  0.38908834    -0.08300
C299        C  0.02707604  0.25938184  0.38783380     0.30500
C300        C  0.01541022  0.28043442  0.38791965    -0.20300
C301        C  0.48270194  0.26967108  0.38887517    -0.08300
C302        C  0.46179031  0.23706443  0.38989555     0.30500
F303        F  0.43007986  0.22550699  0.39128912    -0.18900
H304        H  0.45681436  0.19105511  0.39121677     0.18900
H305        H  0.03216315  0.30538421  0.38723471     0.18900
F306        F  0.05881968  0.27098595  0.38723352    -0.18800
C307        C  0.06845310  0.13076482  0.51804265    -0.20300
C308        C  0.08254302  0.15891745  0.53315694    -0.08300
C309        C  0.08838500  0.18684258  0.52005284     0.30500
C310        C  0.07970234  0.18632238  0.49276174    -0.20300
C311        C  0.06478165  0.15808423  0.47793398    -0.08300
C312        C  0.05963274  0.13025654  0.49071744     0.30500
F313        F  0.04671339  0.10272060  0.47667009    -0.18900
H314        H  0.06395289  0.10894689  0.52747776     0.18900
H315        H  0.08428388  0.20815112  0.48328271     0.18900
F316        F  0.10246463  0.21473677  0.53355064    -0.18800
C317        C  0.46276671  0.07941184  0.32042401    -0.20300
C318        C  0.46352151  0.07946896  0.34918401    -0.08300
C319        C  0.43916155  0.05414240  0.36338093     0.30500
C320        C  0.41508951  0.02914250  0.34906952    -0.20300
C321        C  0.41442718  0.02893354  0.32037360    -0.08300
C322        C  0.43837324  0.05446831  0.30607505     0.30500
F323        F  0.43836036  0.05534512  0.27834433    -0.18900
H324        H  0.48108526  0.09873932  0.30897323     0.18900
H325        H  0.39667491  0.00998620  0.36061367     0.18900
F326        F  0.43831993  0.05346874  0.39110361    -0.18800
C327        C  0.21609453  0.48157536  0.29407664    -0.20300
C328        C  0.22862320  0.01426139  0.29213622    -0.08300
C329        C  0.26156616  0.03362895  0.28998865     0.30500
C330        C  0.28126492  0.02035043  0.28920092    -0.20300
C331        C  0.26865988  0.48759712  0.29070960    -0.08300
C332        C  0.23579744  0.46833251  0.29352262     0.30500
F333        F  0.22254597  0.43665176  0.29483013    -0.18900
H334        H  0.19079359  0.46606264  0.29584096     0.18900
H335        H  0.30654013  0.03581748  0.28709378     0.18900
F336        F  0.27469214  0.06523774  0.28774067    -0.18800
C337        C  0.12942328  0.13320730  0.37186313    -0.20300
C338        C  0.11726152  0.14903492  0.35645393    -0.08300
C339        C  0.12459859  0.15395231  0.32845937     0.30500
C340        C  0.14069515  0.14025679  0.31577005    -0.20300
C341        C  0.15019668  0.12191783  0.33078851    -0.08300
C342        C  0.14578235  0.11981645  0.35925070     0.30500
F343        F  0.15415120  0.10201251  0.37448875    -0.18900
H344        H  0.12440734  0.12931872  0.39352157     0.18900
H345        H  0.14394019  0.14232338  0.29381437     0.18900
F346        F  0.11378179  0.16945386  0.31285285    -0.18800
C347        C  0.05522337  0.44268270  0.37094549    -0.20300
C348        C  0.02750535  0.42374650  0.35606597    -0.08300
C349        C  0.02601514  0.43078740  0.32841729     0.30500
C350        C  0.05207695  0.45571254  0.31588448    -0.20300
C351        C  0.08015808  0.47404396  0.33049179    -0.08300
C352        C  0.08143272  0.46745086  0.35832697     0.30500
F353        F  0.10811694  0.48443357  0.37327954    -0.18900
H354        H  0.05698639  0.43773229  0.39223950     0.18900
H355        H  0.05034637  0.46041114  0.29449529     0.18900
F356        F  0.49946542  0.41356475  0.31339825    -0.18800
C357        C  0.20584936  0.22519797  0.05357235    -0.20300
C358        C  0.21740783  0.20412100  0.05661243    -0.08300
C359        C  0.25013631  0.21647425  0.06012349     0.30500
C360        C  0.27064040  0.24903150  0.06051713    -0.20300
C361        C  0.25917460  0.27015022  0.05719726    -0.08300
C362        C  0.22642142  0.25781055  0.05369578     0.30500
F363        F  0.21416496  0.27721328  0.05100506    -0.18900
H364        H  0.18070518  0.21638169  0.05108399     0.18900
H365        H  0.29569921  0.25774484  0.06348534     0.18900
F366        F  0.26225112  0.19712509  0.06411246    -0.18800
C367        C  0.13374936  0.99064792  0.03640040    -0.20300
C368        C  0.14311334  0.01862688  0.02191097    -0.08300
C369        C  0.14054704  0.01716802  0.99328447     0.30500
C370        C  0.12599587  0.48803654  0.97983908    -0.20300
C371        C  0.11399526  0.45973640  0.99453558    -0.08300
C372        C  0.11974284  0.46147685  0.02286632     0.30500
F373        F  0.10973141  0.43498110  0.03781961    -0.18900
H374        H  0.13572155  0.99120848  0.05847171     0.18900
H375        H  0.12226287  0.48761843  0.95798909     0.18900
F376        F  0.14891700  0.04355319  0.97856600    -0.18800
C377        C  0.18484968  0.09168156  0.16058186    -0.20300
C378        C  0.15572666  0.08465035  0.14880054    -0.08300
C379        C  0.12822142  0.07003937  0.16498914     0.30500
C380        C  0.12988280  0.06205350  0.19208338    -0.20300
C381        C  0.15897011  0.06904950  0.20377504    -0.08300
C382        C  0.18656052  0.08420264  0.18784424     0.30500
F383        F  0.21509489  0.09119105  0.19839721    -0.18900
H384        H  0.20639092  0.10292206  0.14865066     0.18900
H385        H  0.10837773  0.05076199  0.20408663     0.18900
F386        F  0.09962420  0.06313426  0.15467039    -0.18800
C387        C  0.06554166  0.09089866  0.99205628    -0.20300
C388        C  0.06746707  0.09324511  0.02075022    -0.08300
C389        C  0.04331801  0.09484800  0.03522585     0.30500
C390        C  0.01853640  0.09519924  0.02119132    -0.20300
C391        C  0.01708785  0.09390062  0.99246341    -0.08300
C392        C  0.04065765  0.09120704  0.97798520     0.30500
F393        F  0.04012455  0.08951237  0.95028400    -0.18900
H394        H  0.08366916  0.08936223  0.98038229     0.18900
H395        H  0.00065996  0.09706914  0.03295950     0.18900
F396        F  0.04401452  0.09703610  0.06290844    -0.18800
O397        O  0.12916484  0.58822637  0.10861831    -0.56800
C398        C  0.09537553  0.59554761  0.03506789     0.75800
O399        O  0.20379453  0.64947691  0.05251836    -0.57900
C400        C  0.15422854  0.59154895  0.11955332     0.75800
C401        C  0.14937401  0.54766333  0.03670170     0.78200
Cd402      Cd  0.15097968  0.60224047  0.06202135     1.37500
O403        O  0.09718967  0.59540442  0.06092247    -0.56800
O404        O  0.13425109  0.54609759  0.05820530    -0.55600
C405        C  0.19518794  0.66960539  0.05740136     0.78200
O406        O  0.16785519  0.57507232  0.02773715    -0.58000
O407        O  0.11912535  0.59847314  0.02196831    -0.56400
O408        O  0.17793813  0.60058222  0.10394736    -0.56400
O409        O  0.16636557  0.65860547  0.06348780    -0.55600
O410        O  0.10694853  0.00559983  0.29141575    -0.56800
C411        C  0.16026647  0.56137208  0.23271578     0.75800
O412        O  0.17350628  0.58836127  0.32725063    -0.57900
C413        C  0.10782114  0.99956252  0.31647188     0.75800
C414        C  0.20683128  0.52727112  0.29149939     0.78200
Cd415      Cd  0.16156095  0.54918494  0.28967869     1.37500
O416        O  0.13621709  0.53998402  0.24482132    -0.56800
O417        O  0.17773046  0.50959491  0.28671368    -0.55600
C418        C  0.15837525  0.60033396  0.31623483     0.78200
O419        O  0.21578188  0.55610462  0.29556664    -0.58000
O420        O  0.18522944  0.57626612  0.24683099    -0.56400
O421        O  0.13363779  0.51648838  0.32883219    -0.56400
O422        O  0.14808969  0.59088812  0.29241728    -0.55600
O423        O  0.49128252  0.60686068  0.38990964    -0.56800
C424        C  0.05531941  0.65810868  0.44919444     0.75800
O425        O  0.08403453  0.67320698  0.35846412    -0.57900
C426        C  0.48955637  0.60593671  0.36404039     0.75800
C427        C  0.01821151  0.70411468  0.38993873     0.78200
Cd428      Cd  0.03978396  0.65821715  0.39244339     1.37500
O429        O  0.03385013  0.63362826  0.43760353    -0.56800
O430        O  0.00080831  0.67621900  0.39797621    -0.55600
C431        C  0.09295242  0.65516411  0.36887749     0.78200
O432        O  0.04613197  0.71126442  0.38289830    -0.58000
O433        O  0.06844402  0.68280433  0.43484072    -0.56400
O434        O  0.01136481  0.62904214  0.35146765    -0.56400
O435        O  0.07851403  0.64069289  0.39017173    -0.55600
O436        O  0.09285202  0.60511840  0.62352900    -0.56800
C437        C  0.09026465  0.65893710  0.56252741     0.75800
O438        O  0.04718507  0.64402277  0.62224929    -0.57900
C439        C  0.09811284  0.60584649  0.64896046     0.75800
C440        C  0.17065886  0.70572500  0.62104988     0.78200
Cd441      Cd  0.10307809  0.65941584  0.62023662     1.37500
O442        O  0.08816435  0.63489685  0.57417161    -0.56800
O443        O  0.15986504  0.67698209  0.61549349    -0.55600
C444        C  0.04732181  0.65681933  0.64473064     0.78200
O445        O  0.15011714  0.71363923  0.62698674    -0.58000
O446        O  0.09885989  0.68296296  0.57750393    -0.56400
O447        O  0.10634920  0.63167256  0.66100614    -0.56400
O448        O  0.07430169  0.67371888  0.65557492    -0.55600
O449        O  0.44637843  0.58649202  0.90675760    -0.56800
C450        C  0.49138953  0.59631675  0.97837436     0.75800
O451        O  0.48102027  0.65853444  0.95415971    -0.57900
C452        C  0.42421743  0.58958962  0.89635359     0.75800
C453        C  0.39042192  0.54753571  0.98158645     0.78200
Cd454      Cd  0.44069032  0.60224010  0.95374172     1.37500
O455        O  0.48835573  0.59541631  0.95255515    -0.56800
O456        O  0.40361340  0.57439879  0.99291359    -0.55600
C457        C  0.46308098  0.66988722  0.95847684     0.78200
O458        O  0.39796518  0.54694224  0.95696401    -0.58000
O459        O  0.47122811  0.59984327  0.99195427    -0.56400
O460        O  0.41034912  0.59930290  0.91234469    -0.56400
O461        O  0.43394420  0.64992051  0.96142276    -0.55600
O462        O  0.38144908  0.00309254  0.72263931    -0.56800
C463        C  0.38552068  0.55896910  0.78284185     0.75800
O464        O  0.40081669  0.58840242  0.68766659    -0.57900
C465        C  0.37762636  0.99909437  0.69699200     0.75800
C466        C  0.30611804  0.52883303  0.71985692     0.78200
Cd467      Cd  0.37324663  0.54904626  0.72462049     1.37500
O468        O  0.38941917  0.53876792  0.76969663    -0.56800
O469        O  0.31700095  0.51020861  0.71977028    -0.55600
C470        C  0.42775910  0.60109637  0.69900856     0.78200
O471        O  0.32640352  0.55783469  0.72162558    -0.58000
O472        O  0.37443749  0.57333834  0.76934835    -0.56400
O473        O  0.37212184  0.51832482  0.68434933    -0.56400
O474        O  0.42844917  0.59224711  0.72303830    -0.55600
O475        O  0.38333550  0.50217470  0.28066353    -0.56800
C476        C  0.33195369  0.93464357  0.22555381     0.75800
O477        O  0.32322845  0.91260747  0.31926453    -0.57900
C478        C  0.38811846  0.50226531  0.30613229     0.75800
C479        C  0.28997239  0.97412389  0.28818217     0.78200
Cd480      Cd  0.33401103  0.95109263  0.28177427     1.37500
O481        O  0.35788006  0.95114247  0.23799373    -0.56800
O482        O  0.31778333  0.99063536  0.27922111    -0.55600
C483        C  0.33822359  0.90046840  0.30804225     0.78200
O484        O  0.28174866  0.94592708  0.29439993    -0.58000
O485        O  0.30685535  0.92718841  0.23887798    -0.56400
O486        O  0.36861550  0.97833094  0.31933143    -0.56400
O487        O  0.34752817  0.90910948  0.28387221    -0.55600
O488        O  0.34943653  0.88574172  0.10630122    -0.56800
C489        C  0.38062048  0.87328840  0.03400748     0.75800
O490        O  0.27413368  0.82491464  0.05040198    -0.57900
C491        C  0.32628839  0.88745294  0.11629170     0.75800
C492        C  0.33417914  0.92840449  0.03580501     0.78200
Cd493      Cd  0.32742900  0.87156710  0.06033829     1.37500
O494        O  0.37995571  0.87652129  0.05968516    -0.56800
O495        O  0.35049517  0.92814279  0.05572215    -0.55600
C496        C  0.28158515  0.80465142  0.05797881     0.78200
O497        O  0.31284771  0.90170447  0.02720687    -0.58000
O498        O  0.35652535  0.86918481  0.02078322    -0.56400
O499        O  0.30287019  0.87985461  0.10064751    -0.56400
O500        O  0.30964388  0.81546142  0.06637142    -0.55600
O501        O  0.03215612  0.89311177  0.91029153    -0.56800
C502        C  0.48804201  0.87621420  0.98089839     0.75800
O503        O  0.04478637  0.82584056  0.96372197    -0.57900
C504        C  0.05482715  0.89216844  0.89834212     0.75800
C505        C  0.09151057  0.92951725  0.98081703     0.78200
Cd506      Cd  0.03959148  0.87406333  0.95463389     1.37500
O507        O  0.49196819  0.87941281  0.95526039    -0.56800
O508        O  0.08135081  0.92943579  0.95709945    -0.55600
C509        C  0.01675295  0.80613375  0.95633453     0.78200
O510        O  0.07961811  0.90288303  0.99232849    -0.58000
O511        O  0.00838297  0.87276049  0.99416303    -0.56400
O512        O  0.06926032  0.88127732  0.91212418    -0.56400
O513        O  0.00048716  0.81788368  0.94761999    -0.55600
O514        O  0.09574397  0.49855782  0.73096547    -0.56800
C515        C  0.08827633  0.93363740  0.78639594     0.75800
O516        O  0.07362047  0.90959388  0.69320785    -0.57900
C517        C  0.09586105  0.50133046  0.70521427     0.75800
C518        C  0.16965167  0.97589071  0.72514353     0.78200
Cd519      Cd  0.10138138  0.95106551  0.72969089     1.37500
O520        O  0.08396786  0.95483267  0.77597668    -0.56800
O521        O  0.15737281  0.99050693  0.73647054    -0.55600
C522        C  0.04608076  0.90102789  0.70236716     0.78200
O523        O  0.15026727  0.94879475  0.71580992    -0.58000
O524        O  0.09927987  0.92072447  0.77066333    -0.56400
O525        O  0.09855823  0.98099987  0.69128381    -0.56400
O526        O  0.04494445  0.91334749  0.72477566    -0.55600
O527        O  0.39916401  0.86648353  0.57236667    -0.56800
C528        C  0.37685304  0.89428161  0.64122770     0.75800
O529        O  0.32707699  0.78619683  0.62167441    -0.57900
C530        C  0.39095002  0.84139401  0.55907791     0.75800
C531        C  0.42920387  0.84321527  0.64242881     0.78200
Cd532      Cd  0.37440530  0.84031440  0.61551028     1.37500
O533        O  0.37456741  0.89064221  0.61549954    -0.56800
O534        O  0.43091737  0.85649111  0.61994964    -0.55600
C535        C  0.30646442  0.79462100  0.61818044     0.78200
O536        O  0.40147250  0.82547072  0.65155238    -0.58000
O537        O  0.37792137  0.87291791  0.65481375    -0.56400
O538        O  0.37381055  0.81583657  0.57147023    -0.56400
O539        O  0.31729303  0.82359035  0.61395421    -0.55600
O540        O  0.49939453  0.89168859  0.39461349    -0.56800
C541        C  0.43251042  0.83968373  0.44884343     0.75800
O542        O  0.41208349  0.82840421  0.35436510    -0.57900
C543        C  0.50114612  0.89581465  0.36896449     0.75800
C544        C  0.47111346  0.79273198  0.38964255     0.78200
Cd545      Cd  0.45072700  0.83986882  0.39284497     1.37500
O546        O  0.45826853  0.86176916  0.43957064    -0.56800
O547        O  0.48961789  0.82134693  0.39503346    -0.55600
C548        C  0.40038061  0.84409015  0.36499506     0.78200
O549        O  0.44257212  0.78532817  0.38515400    -0.58000
O550        O  0.41623782  0.81730110  0.43252373    -0.56400
O551        O  0.47952074  0.87427711  0.35479711    -0.56400
O552        O  0.41023825  0.85503086  0.38862066    -0.55600
C553        C  0.38052585  0.81983167  0.51180928    -0.20300
C554        C  0.40134915  0.84177052  0.53076987    -0.08300
C555        C  0.43253304  0.86301151  0.52280314     0.30500
C556        C  0.44255400  0.86220882  0.49614995    -0.20300
C557        C  0.42173909  0.84019687  0.47706505    -0.08300
C558        C  0.39043393  0.81907828  0.48514629     0.30500
F559        F  0.36924823  0.79789982  0.46726995    -0.18900
H560        H  0.35636745  0.80329354  0.51765355     0.18900
H561        H  0.46682739  0.87861228  0.49053560     0.18900
F562        F  0.45364179  0.88353095  0.54112706    -0.18800
C563        C  0.48742036  0.86142104  0.64434601    -0.20300
C564        C  0.45837880  0.85077485  0.65799864    -0.08300
C565        C  0.45855473  0.85288424  0.68665535     0.30500
C566        C  0.48719633  0.86726976  0.70104989    -0.20300
C567        C  0.01639197  0.87966168  0.68733611    -0.08300
C568        C  0.01616089  0.87544816  0.65881531     0.30500
F569        F  0.04368348  0.88711380  0.64466127    -0.18900
H570        H  0.48798526  0.86028854  0.62223462     0.18900
H571        H  0.48654594  0.87025798  0.72295911     0.18900
F572        F  0.43127485  0.84393415  0.70057618    -0.18800
C573        C  0.09625483  0.91107268  0.82936251    -0.20300
C574        C  0.08050588  0.92420550  0.81532301    -0.08300
C575        C  0.05704181  0.92777548  0.82907004     0.30500
C576        C  0.04872793  0.91718238  0.85594936    -0.20300
C577        C  0.06409665  0.90351360  0.86990475    -0.08300
C578        C  0.08862103  0.90136096  0.85651684     0.32900
F579        F  0.10536095  0.88998122  0.86961135    -0.18900
H580        H  0.11482627  0.90865811  0.81937418     0.18900
H581        H  0.03014575  0.91969602  0.86585930     0.18900
F582        F  0.04150367  0.94069009  0.81630128    -0.18800
C583        C  0.43533136  0.87288661  0.97899485    -0.20300
C584        C  0.46091628  0.87604551  0.99458086    -0.08300
C585        C  0.45987684  0.87828839  0.02322733     0.30500
C586        C  0.43376262  0.87752565  0.03582460    -0.20300
C587        C  0.40809735  0.87422771  0.02025119    -0.08300
C588        C  0.40907512  0.87181588  0.99160572     0.30500
F589        F  0.38470849  0.86833635  0.97571915    -0.18900
H590        H  0.43544385  0.87084175  0.95690971     0.18900
H591        H  0.43362030  0.87941217  0.05792004     0.18900
F592        F  0.48412755  0.88144876  0.03910443    -0.18800
C593        C  0.36369257  0.86595668  0.36507646    -0.20300
C594        C  0.37814883  0.85163312  0.35047828    -0.08300
C595        C  0.37481882  0.84926871  0.32185638     0.30500
C596        C  0.35964584  0.86327570  0.30822436    -0.20300
C597        C  0.34719220  0.87956896  0.32278230    -0.08300
C598        C  0.34841583  0.87977679  0.35150494     0.30500
F599        F  0.33739118  0.89570848  0.36646399    -0.18900
H600        H  0.36577473  0.86810253  0.38713916     0.18900
H601        H  0.35911282  0.86277498  0.28607227     0.18900
F602        F  0.38823801  0.83558474  0.30686623    -0.18800
C603        C  0.35521436  0.91075448  0.15969745    -0.20300
C604        C  0.32719126  0.89885508  0.14442955    -0.08300
C605        C  0.30097830  0.89959774  0.15582619     0.30500
C606        C  0.30288609  0.91176118  0.18205502    -0.20300
C607        C  0.33092728  0.92365952  0.19727482    -0.08300
C608        C  0.35722708  0.92321197  0.18577858     0.30500
F609        F  0.38467799  0.93410311  0.19991530    -0.18900
H610        H  0.37583183  0.91067144  0.15135263     0.18900
H611        H  0.28232372  0.91184517  0.19049116     0.18900
F612        F  0.27348260  0.88857312  0.14174249    -0.18800
C613        C  0.36894243  0.96633285  0.65505423    -0.20300
C614        C  0.37885311  0.97308870  0.68245870    -0.08300
C615        C  0.38909392  0.95431804  0.69575570     0.30500
C616        C  0.38856228  0.92893333  0.68211777    -0.20300
C617        C  0.37811980  0.92185787  0.65491376    -0.08300
C618        C  0.36855776  0.94101639  0.64136598     0.30500
F619        F  0.35795398  0.93478588  0.61518705    -0.18900
H620        H  0.36091005  0.98035860  0.64427729     0.18900
H621        H  0.39639977  0.91476600  0.69291848     0.18900
F622        F  0.39971681  0.96046313  0.72191381    -0.18800
C623        C  0.21797106  0.97434023  0.70883403    -0.20300
C624        C  0.20473070  0.99011639  0.72292267    -0.08300
C625        C  0.22543286  0.51973372  0.73468786     0.30500
C626        C  0.25833675  0.53295451  0.73238595    -0.20300
C627        C  0.27144525  0.51671249  0.71899052    -0.08300
C628        C  0.25088410  0.98734102  0.70698026     0.30500
F629        F  0.26260181  0.97111200  0.69339568    -0.18900
H630        H  0.20284326  0.95174329  0.69942434     0.18900
H631        H  0.27358203  0.55534347  0.74210242     0.18900
F632        F  0.21404323  0.53569005  0.74914100    -0.18800
C633        C  0.50872255  0.72479936  0.96355873    -0.20300
C634        C  0.47606615  0.70464890  0.95946509    -0.08300
C635        C  0.45690374  0.71825466  0.95500591     0.30500
C636        C  0.47033380  0.75109364  0.95396990    -0.20300
C637        C  0.00310091  0.77125428  0.95783167    -0.08300
C638        C  0.02206435  0.75759567  0.96302662     0.30500
F639        F  0.05363424  0.77584254  0.96715208    -0.18900
H640        H  0.52411029  0.71511685  0.96713588     0.18900
H641        H  0.45498199  0.76074615  0.95011288     0.18900
F642        F  0.42533592  0.69992242  0.95081416    -0.18800
C643        C  0.35811188  0.98675751  0.03794150    -0.20300
C644        C  0.34157864  0.95868034  0.02287755    -0.08300
C645        C  0.33675554  0.96056190  0.99479740     0.30500
C646        C  0.35086683  0.48986867  0.98174269    -0.20300
C647        C  0.36944627  0.51787759  0.99647590    -0.08300
C648        C  0.37166222  0.51605394  0.02502569     0.30500
F649        F  0.38922068  0.54230335  0.04019714    -0.18900
H650        H  0.36197203  0.98600294  0.05965954     0.18900
H651        H  0.34861967  0.49051325  0.95976847     0.18900
F652        F  0.32084954  0.93407837  0.97952118    -0.18800
C653        C  0.41495802  0.55704570  0.82403135    -0.20300
C654        C  0.39449126  0.56613214  0.81212170    -0.08300
C655        C  0.38413504  0.58329467  0.82812067     0.30500
C656        C  0.39388951  0.59078050  0.85538273    -0.20300
C657        C  0.41458144  0.58190573  0.86722747    -0.08300
C658        C  0.42518006  0.56503985  0.85111900     0.30500
F659        F  0.44522613  0.55600016  0.86154393    -0.18900
H660        H  0.42360473  0.54411506  0.81214273     0.18900
H661        H  0.38532418  0.60381160  0.86724625     0.18900
F662        F  0.36442940  0.59269062  0.81753472    -0.18800
C663        C  0.21675869  0.76106309  0.62112799    -0.20300
C664        C  0.20539932  0.72853224  0.62037556    -0.08300
C665        C  0.22763726  0.71805974  0.61842360     0.30500
C666        C  0.26022648  0.73954971  0.61795192    -0.20300
C667        C  0.27163539  0.77206151  0.61884886    -0.08300
C668        C  0.24937541  0.78259729  0.62007371     0.30500
F669        F  0.25899384  0.81374016  0.62044557    -0.18900
H670        H  0.20035554  0.76990537  0.62224881     0.18900
H671        H  0.27658164  0.73066564  0.61663560     0.18900
F672        F  0.21802555  0.68694788  0.61713930    -0.18800
C673        C  0.98871113  0.63382756  0.64287646    -0.20300
C674        C  0.01699267  0.65000080  0.65790224    -0.08300
C675        C  0.01506997  0.65487735  0.68605565     0.30500
C676        C  0.48554083  0.64100029  0.69916876    -0.20300
C677        C  0.45744020  0.62258437  0.68440033    -0.08300
C678        C  0.45926730  0.62041309  0.65587045     0.30500
F679        F  0.43285758  0.60271296  0.64079499    -0.18900
H680        H  0.98936198  0.62986011  0.62114946     0.18900
H681        H  0.48478138  0.64316614  0.72116009     0.18900
F682        F  0.04166016  0.67081129  0.70133306    -0.18800
C683        C  0.10006215  0.57959062  0.69222119    -0.20300
C684        C  0.09513475  0.57818522  0.66378762    -0.08300
C685        C  0.08787727  0.55030267  0.64973893     0.30500
C686        C  0.08745644  0.52525395  0.66356321    -0.20300
C687        C  0.09364520  0.52711768  0.69173647    -0.08300
C688        C  0.09904012  0.55421319  0.70616737     0.30500
F689        F  0.10434665  0.55664944  0.73353162    -0.18900
H690        H  0.10514420  0.60053845  0.70366509     0.18900
H691        H  0.08261038  0.50441614  0.65205078     0.18900
F692        F  0.08174515  0.54731464  0.62251392    -0.18800
C693        C  0.47348799  0.71599545  0.39018718    -0.20300
C694        C  0.00624032  0.72683602  0.38908704    -0.08300
C695        C  0.02709263  0.75939820  0.38782491     0.30500
C696        C  0.01542255  0.78044732  0.38790889    -0.20300
C697        C  0.48269902  0.76966599  0.38889353    -0.08300
C698        C  0.46178439  0.73705988  0.38991727     0.30500
F699        F  0.43007489  0.72550635  0.39131618    -0.18900
H700        H  0.45680162  0.69104751  0.39123590     0.18900
H701        H  0.03217247  0.80539764  0.38721918     0.18900
F702        F  0.05883667  0.77100585  0.38721767    -0.18800
C703        C  0.06844607  0.63074150  0.51804593    -0.20300
C704        C  0.08254774  0.65889594  0.53315788    -0.08300
C705        C  0.08840030  0.68682315  0.52005187     0.30500
C706        C  0.07971674  0.68630407  0.49276162    -0.20300
C707        C  0.06478455  0.65806525  0.47793563    -0.08300
C708        C  0.05962428  0.63023428  0.49072092     0.30500
F709        F  0.04669129  0.60269608  0.47667626    -0.18900
H710        H  0.06393687  0.60892155  0.52748301     0.18900
H711        H  0.08430701  0.70813527  0.48328175     0.18900
F712        F  0.10249120  0.71471875  0.53354719    -0.18800
C713        C  0.46277314  0.57940073  0.32041418    -0.20300
C714        C  0.46353509  0.57944180  0.34917398    -0.08300
C715        C  0.43918756  0.55409917  0.36336550     0.30500
C716        C  0.41511628  0.52910419  0.34904919    -0.20300
C717        C  0.41444220  0.52891475  0.32035366    -0.08300
C718        C  0.43838036  0.55446135  0.30606031     0.30500
F719        F  0.43835862  0.55535564  0.27833035    -0.18900
H720        H  0.48108358  0.59873934  0.30896750     0.18900
H721        H  0.39670960  0.50993733  0.36058993     0.18900
F722        F  0.43835474  0.55340663  0.39108798    -0.18800
C723        C  0.21609132  0.98157028  0.29404332    -0.20300
C724        C  0.22862138  0.51426216  0.29212483    -0.08300
C725        C  0.26155930  0.53362612  0.28992251     0.30500
C726        C  0.28125805  0.52034787  0.28912968    -0.20300
C727        C  0.26866132  0.98759597  0.29073232    -0.08300
C728        C  0.23579370  0.96832711  0.29349447     0.30500
F729        F  0.22253815  0.93664325  0.29475332    -0.18900
H730        H  0.19078683  0.96605404  0.29576625     0.18900
H731        H  0.30652852  0.53581202  0.28698099     0.18900
F732        F  0.27467816  0.56522938  0.28762387    -0.18800
C733        C  0.12941415  0.63320177  0.37186421    -0.20300
C734        C  0.11725883  0.64903506  0.35645520    -0.08300
C735        C  0.12460551  0.65396162  0.32846280     0.30500
C736        C  0.14070504  0.64026854  0.31577426    -0.20300
C737        C  0.15020015  0.62192387  0.33079210    -0.08300
C738        C  0.14577607  0.61981374  0.35925300     0.30500
F739        F  0.15413683  0.60200276  0.37448985    -0.18900
H740        H  0.12439079  0.62930649  0.39352122     0.18900
H741        H  0.14395715  0.64234122  0.29381944     0.18900
F742        F  0.11379496  0.66946936  0.31285715    -0.18800
C743        C  0.05525137  0.94265814  0.37093792    -0.20300
C744        C  0.02752091  0.92374038  0.35606728    -0.08300
C745        C  0.02601429  0.93080231  0.32842789     0.30500
C746        C  0.05207218  0.95572993  0.31589371    -0.20300
C747        C  0.08016554  0.97404283  0.33049067    -0.08300
C748        C  0.08145679  0.96742918  0.35831779     0.30500
F749        F  0.10815318  0.98439445  0.37326011    -0.18900
H750        H  0.05702637  0.93769100  0.39222484     0.18900
H751        H  0.05032866  0.96044511  0.29451138     0.18900
F752        F  0.49947059  0.91353249  0.31337449    -0.18800
C753        C  0.20586042  0.72518955  0.05359132    -0.20300
C754        C  0.21742046  0.70411343  0.05662714    -0.08300
C755        C  0.25014916  0.71646805  0.06013834     0.30500
C756        C  0.27065212  0.74902600  0.06053440    -0.20300
C757        C  0.25918471  0.77014389  0.05721683    -0.08300
C758        C  0.22643099  0.75780240  0.05371722     0.30500
F759        F  0.21417249  0.77720374  0.05103010    -0.18900
H760        H  0.18071598  0.71637232  0.05110372     0.18900
H761        H  0.29571134  0.75774057  0.06350186     0.18900
F762        F  0.26226491  0.69711929  0.06412486    -0.18800
C763        C  0.13375009  0.49062988  0.03640949    -0.20300
C764        C  0.14311910  0.51861191  0.02192343    -0.08300
C765        C  0.14055150  0.51715770  0.99329713     0.30500
C766        C  0.12599507  0.98804433  0.97983002    -0.20300
C767        C  0.11399756  0.95974670  0.99453017    -0.08300
C768        C  0.11974621  0.96149283  0.02286098     0.30500
F769        F  0.10973750  0.93500041  0.03781844    -0.18900
H770        H  0.13572215  0.49118680  0.05848075     0.18900
H771        H  0.12226258  0.98762172  0.95797956     0.18900
F772        F  0.14892289  0.54354583  0.97858269    -0.18800
C773        C  0.18484084  0.59166179  0.16058423    -0.20300
C774        C  0.15572233  0.58465214  0.14880682    -0.08300
C775        C  0.12822043  0.57006933  0.16500174     0.30500
C776        C  0.12988034  0.56208876  0.19209823    -0.20300
C777        C  0.15896308  0.56906071  0.20378488    -0.08300
C778        C  0.18655048  0.58418677  0.18784776     0.30500
F779        F  0.21508004  0.59115016  0.19839509    -0.18900
H780        H  0.20637961  0.60288038  0.14864842     0.18900
H781        H  0.10837792  0.55081834  0.20410641     0.18900
F782        F  0.09962793  0.56318649  0.15468722    -0.18800
C783        C  0.06557567  0.59091118  0.99203052    -0.20300
C784        C  0.06749276  0.59324516  0.02072551    -0.08300
C785        C  0.04333548  0.59483426  0.03519981     0.30500
C786        C  0.01855251  0.59518122  0.02116448    -0.20300
C787        C  0.01710987  0.59389264  0.99243637    -0.08300
C788        C  0.04068943  0.59121538  0.97795818     0.30500
F789        F  0.04016302  0.58953190  0.95025648    -0.18900
H790        H  0.08371021  0.58938652  0.98035731     0.18900
H791        H  0.00066947  0.59703924  0.03293288     0.18900
F792        F  0.04402398  0.59701157  0.06288295    -0.18800
O793        O  0.62916443  0.08822064  0.10861677    -0.56800
C794        C  0.59537426  0.09554600  0.03506793     0.75800
O795        O  0.70379208  0.14947818  0.05252178    -0.57900
C796        C  0.65423056  0.09155019  0.11955241     0.75800
C797        C  0.64937507  0.04766549  0.03669627     0.78200
Cd798      Cd  0.65097887  0.10224001  0.06202013     1.37500
O799        O  0.59718727  0.09539900  0.06092245    -0.56800
O800        O  0.63425079  0.04609757  0.05819954    -0.55600
C801        C  0.69518315  0.16960554  0.05740154     0.78200
O802        O  0.66785721  0.07507539  0.02773411    -0.58000
O803        O  0.61912582  0.09847662  0.02196785    -0.56400
O804        O  0.67794131  0.10058943  0.10394690    -0.56400
O805        O  0.66635935  0.15860438  0.06348334    -0.55600
O806        O  0.60694808  0.50560528  0.29142077    -0.56800
C807        C  0.66027053  0.06137181  0.23271439     0.75800
O808        O  0.67350249  0.08835386  0.32725277    -0.57900
C809        C  0.60782177  0.49956774  0.31647669     0.75800
C810        C  0.70683167  0.02726804  0.29150304     0.78200
Cd811      Cd  0.66156185  0.04918208  0.28967744     1.37500
O812        O  0.63622046  0.03998417  0.24481950    -0.56800
O813        O  0.67773292  0.00959318  0.28670773    -0.55600
C814        C  0.65837721  0.10033190  0.31623571     0.78200
O815        O  0.71578031  0.05610015  0.29557616    -0.58000
O816        O  0.68523340  0.07626462  0.24683006    -0.56400
O817        O  0.63363605  0.01648504  0.32882901    -0.56400
O818        O  0.64809619  0.09089058  0.29241621    -0.55600
O819        O  0.99128960  0.10686194  0.38990987    -0.56800
C820        C  0.55531936  0.15811330  0.44919257     0.75800
O821        O  0.58403826  0.17320783  0.35846132    -0.57900
C822        C  0.98956276  0.10593753  0.36404067     0.75800
C823        C  0.51820837  0.20411372  0.38993359     0.78200
Cd824      Cd  0.53978713  0.15822049  0.39244101     1.37500
O825        O  0.53385296  0.13363180  0.43760070    -0.56800
O826        O  0.50080632  0.17621781  0.39797102    -0.55600
C827        C  0.59295877  0.15516836  0.36887765     0.78200
O828        O  0.54612965  0.21126513  0.38289429    -0.58000
O829        O  0.56844222  0.18280957  0.43483950    -0.56400
O830        O  0.51136897  0.12904340  0.35146695    -0.56400
O831        O  0.57852234  0.14070104  0.39017390    -0.55600
O832        O  0.59284686  0.10511977  0.62352775    -0.56800
C833        C  0.59026278  0.15894197  0.56252582     0.75800
O834        O  0.54717910  0.14401578  0.62224991    -0.57900
C835        C  0.59810422  0.10584630  0.64895973     0.75800
C836        C  0.67065495  0.20572498  0.62105182     0.78200
Cd837      Cd  0.60307365  0.15941755  0.62023522     1.37500
O838        O  0.58816128  0.13490114  0.57416972    -0.56800
O839        O  0.65986028  0.17698224  0.61549406    -0.55600
C840        C  0.54731718  0.15682152  0.64472644     0.78200
O841        O  0.65011374  0.21363981  0.62698901    -0.58000
O842        O  0.59885872  0.18296771  0.57750261    -0.56400
O843        O  0.60633948  0.13167191  0.66100594    -0.56400
O844        O  0.57429799  0.17372922  0.65556651    -0.55600
O845        O  0.94637696  0.08649145  0.90675813    -0.56800
C846        C  0.99138628  0.09631193  0.97837492     0.75800
O847        O  0.98102076  0.15853281  0.95415806    -0.57900
C848        C  0.92421467  0.08958725  0.89635468     0.75800
C849        C  0.89041767  0.04753419  0.98158500     0.78200
Cd850      Cd  0.94068881  0.10223836  0.95374231     1.37500
O851        O  0.98835289  0.09541223  0.95255572    -0.56800
O852        O  0.90360736  0.07439741  0.99291197    -0.55600
C853        C  0.96308280  0.16988664  0.95847752     0.78200
O854        O  0.89796469  0.04694047  0.95696380    -0.58000
O855        O  0.97122490  0.09983854  0.99195485    -0.56400
O856        O  0.91034546  0.09929914  0.91234617    -0.56400
O857        O  0.93394612  0.14992062  0.96142556    -0.55600
O858        O  0.88144403  0.50308514  0.72264066    -0.56800
C859        C  0.88552140  0.05897056  0.78284213     0.75800
O860        O  0.90081562  0.08841092  0.68766892    -0.57900
C861        C  0.87762285  0.49908718  0.69699319     0.75800
C862        C  0.80611962  0.02883560  0.71985710     0.78200
Cd863      Cd  0.87324864  0.04905061  0.72462035     1.37500
O864        O  0.88941920  0.03876924  0.76969642    -0.56800
O865        O  0.81700327  0.01021176  0.71976766    -0.55600
C866        C  0.92775937  0.10110166  0.69900830     0.78200
O867        O  0.82640458  0.05783719  0.72162817    -0.58000
O868        O  0.87444010  0.07334161  0.76934885    -0.56400
O869        O  0.87212316  0.01833034  0.68434802    -0.56400
O870        O  0.92845194  0.09224867  0.72303606    -0.55600
O871        O  0.88333787  0.00218144  0.28066490    -0.56800
C872        C  0.83194705  0.43463526  0.22555645     0.75800
O873        O  0.82321982  0.41259819  0.31926259    -0.57900
C874        C  0.88812667  0.00226650  0.30613208     0.75800
C875        C  0.78996851  0.47412236  0.28817406     0.78200
Cd876      Cd  0.83400609  0.45108838  0.28177484     1.37500
O877        O  0.85787374  0.45114137  0.23799382    -0.56800
O878        O  0.81777807  0.49063017  0.27920886    -0.55600
C879        C  0.83822030  0.40046389  0.30804175     0.78200
O880        O  0.78174533  0.44592764  0.29439942    -0.58000
O881        O  0.80684848  0.42717361  0.23888263    -0.56400
O882        O  0.86860421  0.47833337  0.31933390    -0.56400
O883        O  0.84753184  0.40911154  0.28387428    -0.55600
O884        O  0.84943507  0.38573975  0.10630330    -0.56800
C885        C  0.88061724  0.37328473  0.03400712     0.75800
O886        O  0.77413430  0.32491456  0.05039774    -0.57900
C887        C  0.82628634  0.38744997  0.11629374     0.75800
C888        C  0.83418214  0.42840593  0.03580920     0.78200
Cd889      Cd  0.82742797  0.37156608  0.06034059     1.37500
O890        O  0.87995513  0.37652227  0.05968437    -0.56800
O891        O  0.85049933  0.42814282  0.05572481    -0.55600
C892        C  0.78158146  0.30465125  0.05798411     0.78200
O893        O  0.81284731  0.40170667  0.02721275    -0.58000
O894        O  0.85651949  0.36917595  0.02078409    -0.56400
O895        O  0.80286851  0.37985243  0.10064925    -0.56400
O896        O  0.80963695  0.31546090  0.06638546    -0.55600
O897        O  0.53215929  0.39311362  0.91029411    -0.56800
C898        C  0.98804141  0.37621483  0.98089841     0.75800
O899        O  0.54478978  0.32584028  0.96372321    -0.57900
C900        C  0.55482917  0.39216856  0.89834421     0.75800
C901        C  0.59151158  0.42951401  0.98082350     0.78200
Cd902      Cd  0.53959293  0.37406278  0.95463661     1.37500
O903        O  0.99196892  0.37941374  0.95526054    -0.56800
O904        O  0.58135654  0.42943355  0.95710415    -0.55600
C905        C  0.51675565  0.30613312  0.95633790     0.78200
O906        O  0.57961495  0.40287970  0.99233516    -0.58000
O907        O  0.50838172  0.37275943  0.99416401    -0.56400
O908        O  0.56926115  0.38127599  0.91212603    -0.56400
O909        O  0.50048870  0.31788271  0.94762547    -0.55600
O910        O  0.59573738  0.99855770  0.73096399    -0.56800
C911        C  0.58827728  0.43363518  0.78639693     0.75800
O912        O  0.57361764  0.40958754  0.69321155    -0.57900
C913        C  0.59585548  0.00133109  0.70521285     0.75800
C914        C  0.66965103  0.47588764  0.72514142     0.78200
Cd915      Cd  0.60138143  0.45106302  0.72969155     1.37500
O916        O  0.58397315  0.45483354  0.77597859    -0.56800
O917        O  0.65737234  0.49050624  0.73646421    -0.55600
C918        C  0.54607813  0.40103018  0.70236683     0.78200
O919        O  0.65026658  0.44878918  0.71581248    -0.58000
O920        O  0.59927592  0.42071867  0.77066314    -0.56400
O921        O  0.59855956  0.48099788  0.69128546    -0.56400
O922        O  0.54494244  0.41335755  0.72477109    -0.55600
O923        O  0.89916760  0.36648055  0.57236841    -0.56800
C924        C  0.87685213  0.39427583  0.64122787     0.75800
O925        O  0.82707362  0.28619116  0.62167171    -0.57900
C926        C  0.89094963  0.34139176  0.55907728     0.75800
C927        C  0.92920070  0.34320823  0.64242855     0.78200
Cd928      Cd  0.87440326  0.34030865  0.61550986     1.37500
O929        O  0.87456601  0.39063652  0.61549970    -0.56800
O930        O  0.93091458  0.35648352  0.61994906    -0.55600
C931        C  0.80646174  0.29461710  0.61818224     0.78200
O932        O  0.90146922  0.32546347  0.65155181    -0.58000
O933        O  0.87792077  0.37291208  0.65481359    -0.56400
O934        O  0.87380509  0.31583379  0.57146713    -0.56400
O935        O  0.81729126  0.32358717  0.61395908    -0.55600
O936        O  0.99939461  0.39168965  0.39461616    -0.56800
C937        C  0.93251131  0.33968354  0.44884304     0.75800
O938        O  0.91208329  0.32840372  0.35436391    -0.57900
C939        C  0.00114651  0.39581802  0.36896751     0.75800
C940        C  0.97111024  0.29273102  0.38963894     0.78200
Cd941      Cd  0.95072619  0.33986939  0.39284422     1.37500
O942        O  0.95826886  0.36176946  0.43957003    -0.56800
O943        O  0.98961470  0.32134514  0.39503282    -0.55600
C944        C  0.90037707  0.34408650  0.36499406     0.78200
O945        O  0.94256966  0.28532861  0.38514857    -0.58000
O946        O  0.91623875  0.31730084  0.43252344    -0.56400
O947        O  0.97952134  0.37428148  0.35479921    -0.56400
O948        O  0.91023333  0.35502707  0.38861998    -0.55600
C949        C  0.88052523  0.31983390  0.51180724    -0.20300
C950        C  0.90134962  0.34176936  0.53076933    -0.08300
C951        C  0.93253506  0.36300740  0.52280409     0.30500
C952        C  0.94255635  0.36220505  0.49615092    -0.20300
C953        C  0.92174020  0.34019632  0.47706469    -0.08300
C954        C  0.89043366  0.31908078  0.48514440     0.30500
F955        F  0.86924695  0.29790584  0.46726656    -0.18900
H956        H  0.85636560  0.30329812  0.51765028     0.18900
H957        H  0.96683072  0.37860606  0.49053762     0.18900
F958        F  0.95364474  0.38352360  0.54112924    -0.18800
C959        C  0.98741683  0.36141305  0.64434747    -0.20300
C960        C  0.95837529  0.35076968  0.65799943    -0.08300
C961        C  0.95855117  0.35288553  0.68665566     0.30500
C962        C  0.98719270  0.36727381  0.70105014    -0.20300
C963        C  0.51638921  0.37966359  0.68733634    -0.08300
C964        C  0.51615824  0.37544496  0.65881625     0.30500
F965        F  0.54368088  0.38710805  0.64466260    -0.18900
H966        H  0.98798164  0.36027615  0.62223635     0.18900
H967        H  0.98654238  0.37026662  0.72295868     0.18900
F968        F  0.93127133  0.34393923  0.70057540    -0.18800
C969        C  0.59624999  0.41106277  0.82936140    -0.20300
C970        C  0.58050744  0.42420392  0.81532428    -0.08300
C971        C  0.55705029  0.42778293  0.82907404     0.30500
C972        C  0.54873637  0.41719024  0.85595353    -0.20300
C973        C  0.56409864  0.40351324  0.86990656    -0.08300
C974        C  0.58861661  0.40135168  0.85651592     0.32900
F975        F  0.60535033  0.38996322  0.86960779    -0.18900
H976        H  0.61481620  0.40864105  0.81937101     0.18900
H977        H  0.53015946  0.41971100  0.86586558     0.18900
F978        F  0.54151900  0.44070636  0.81630788    -0.18800
C979        C  0.93532991  0.37288640  0.97899395    -0.20300
C980        C  0.96091505  0.37604597  0.99458012    -0.08300
C981        C  0.95987525  0.37828891  0.02322654     0.30500
C982        C  0.93376036  0.37752477  0.03582367    -0.20300
C983        C  0.90809451  0.37422531  0.02025028    -0.08300
C984        C  0.90907281  0.37181426  0.99160474     0.30500
F985        F  0.88470604  0.36833434  0.97571817    -0.18900
H986        H  0.93544287  0.37084191  0.95690871     0.18900
H987        H  0.93361794  0.37941118  0.05791904     0.18900
F988        F  0.98412628  0.38145053  0.03910388    -0.18800
C989        C  0.86368072  0.36594351  0.36507519    -0.20300
C990        C  0.87814329  0.35162634  0.35047680    -0.08300
C991        C  0.87481801  0.34926635  0.32185448     0.30500
C992        C  0.85964521  0.36327348  0.30822243    -0.20300
C993        C  0.84718668  0.37956208  0.32278078    -0.08300
C994        C  0.84840353  0.37976325  0.35150355     0.30500
F995        F  0.83737219  0.39568869  0.36646312    -0.18900
H996        H  0.86575855  0.36808508  0.38713819     0.18900
H997        H  0.85911661  0.36277711  0.28607031     0.18900
F998        F  0.88824231  0.33558749  0.30686420    -0.18800
C999        C  0.85521277  0.41075555  0.15969819    -0.20300
C1000       C  0.82718800  0.39885014  0.14443193    -0.08300
C1001       C  0.80097185  0.39958491  0.15583052     0.30500
C1002       C  0.80287811  0.41174655  0.18205979    -0.20300
C1003       C  0.83092109  0.42365131  0.19727775    -0.08300
C1004       C  0.85722406  0.42321176  0.18577958     0.30500
F1005       F  0.88467703  0.43411000  0.19991448    -0.18900
H1006       H  0.87583265  0.41067880  0.15135174     0.18900
H1007       H  0.78231345  0.41182457  0.19049749     0.18900
F1008       F  0.77347444  0.38855421  0.14174837    -0.18800
C1009       C  0.86894628  0.46632996  0.65505370    -0.20300
C1010       C  0.87884965  0.47308117  0.68246026    -0.08300
C1011       C  0.88908461  0.45430667  0.69575889     0.30500
C1012       C  0.88855396  0.42892262  0.68212053    -0.20300
C1013       C  0.87811860  0.42185178  0.65491439    -0.08300
C1014       C  0.86856317  0.44101453  0.64136492     0.30500
F1015       F  0.85796826  0.43478992  0.61518325    -0.18900
H1016       H  0.86091919  0.48035900  0.64427523     0.18900
H1017       H  0.89638659  0.41475215  0.69292267     0.18900
F1018       F  0.89970092  0.46044734  0.72191900    -0.18800
C1019       C  0.71797085  0.47433902  0.70883020    -0.20300
C1020       C  0.70473002  0.49011366  0.72292052    -0.08300
C1021       C  0.72543510  0.01973889  0.73468669     0.30500
C1022       C  0.75833888  0.03295889  0.73238431    -0.20300
C1023       C  0.77144666  0.01671469  0.71899143    -0.08300
C1024       C  0.75088399  0.48734039  0.70697671     0.30500
F1025       F  0.76260245  0.47111322  0.69339017    -0.18900
H1026       H  0.70284344  0.45174308  0.69941891     0.18900
H1027       H  0.77358469  0.05534931  0.74209824     0.18900
F1028       F  0.71404639  0.03569807  0.74913673    -0.18800
C1029       C  0.00872636  0.22479869  0.96355585    -0.20300
C1030       C  0.97606908  0.20464860  0.95946614    -0.08300
C1031       C  0.95690639  0.21825494  0.95501166     0.30500
C1032       C  0.97033662  0.25109398  0.95397677    -0.20300
C1033       C  0.50310390  0.27125367  0.95783486    -0.08300
C1034       C  0.52206799  0.25759468  0.96302534     0.30500
F1035       F  0.55363867  0.27584123  0.96714679    -0.18900
H1036       H  0.02411439  0.21511579  0.96712916     0.18900
H1037       H  0.95498442  0.26074677  0.95012355     0.18900
F1038       F  0.92533784  0.19992329  0.95082340    -0.18800
C1039       C  0.85811903  0.48675970  0.03794404    -0.20300
C1040       C  0.84158403  0.45868209  0.02288100    -0.08300
C1041       C  0.83676133  0.46056285  0.99480066     0.30500
C1042       C  0.85086142  0.98986749  0.98173951    -0.20300
C1043       C  0.86944001  0.01787606  0.99647351    -0.08300
C1044       C  0.87165374  0.01605179  0.02502341     0.30500
F1045       F  0.88921000  0.04230098  0.04019575    -0.18900
H1046       H  0.86197962  0.48600566  0.05966206     0.18900
H1047       H  0.84861531  0.99051271  0.95976527     0.18900
F1048       F  0.82085542  0.43407877  0.97952505    -0.18800
C1049       C  0.91495973  0.05704789  0.82403116    -0.20300
C1050       C  0.89449058  0.06613173  0.81212232    -0.08300
C1051       C  0.88413052  0.08329019  0.82812241     0.30500
C1052       C  0.89388386  0.09077492  0.85538479    -0.20300
C1053       C  0.91457863  0.08190328  0.86722863    -0.08300
C1054       C  0.92518075  0.06504112  0.85111913     0.30500
F1055       F  0.94522957  0.05600450  0.86154327    -0.18900
H1056       H  0.92360931  0.04412036  0.81214157     0.18900
H1057       H  0.88531569  0.10380291  0.86724911     0.18900
F1058       F  0.86442226  0.09268324  0.81753718    -0.18800
C1059       C  0.71675667  0.26106240  0.62113814    -0.20300
C1060       C  0.70539575  0.22853140  0.62037842    -0.08300
C1061       C  0.72763253  0.21805801  0.61841969     0.30500
C1062       C  0.76022203  0.23954693  0.61794821    -0.20300
C1063       C  0.77163243  0.27205879  0.61885192    -0.08300
C1064       C  0.74937369  0.28259576  0.62008406     0.30500
F1065       F  0.75899365  0.31373890  0.62046312    -0.18900
H1066       H  0.70035448  0.26990556  0.62226445     0.18900
H1067       H  0.77657610  0.23066210  0.61662625     0.18900
F1068       F  0.71801947  0.18694619  0.61712769    -0.18800
C1069       C  0.48870655  0.13382871  0.64287375    -0.20300
C1070       C  0.51698879  0.15000437  0.65789817    -0.08300
C1071       C  0.51506775  0.15488353  0.68605124     0.30500
C1072       C  0.98554033  0.14100709  0.69916593    -0.20300
C1073       C  0.95743905  0.12258999  0.68439877    -0.08300
C1074       C  0.95926447  0.12041700  0.65586892     0.30500
F1075       F  0.93285392  0.10271500  0.64079497    -0.18900
H1076       H  0.48935637  0.12985884  0.62114714     0.18900
H1077       H  0.98478201  0.14317390  0.72115724     0.18900
F1078       F  0.54165888  0.17081869  0.70132731    -0.18800
C1079       C  0.60004598  0.07958684  0.69222093    -0.20300
C1080       C  0.59512416  0.07818395  0.66378666    -0.08300
C1081       C  0.58787143  0.05030320  0.64973694     0.30500
C1082       C  0.58745174  0.02525474  0.66356094    -0.20300
C1083       C  0.59363637  0.02711671  0.69173496    -0.08300
C1084       C  0.59902462  0.05420951  0.70616680     0.30500
F1085       F  0.60432569  0.05664350  0.73353183    -0.18900
H1086       H  0.60512361  0.10053293  0.70366566     0.18900
H1087       H  0.58261031  0.00441882  0.65204770     0.18900
F1088       F  0.58174362  0.04731707  0.62251117    -0.18800
C1089       C  0.97348407  0.21599373  0.39017804    -0.20300
C1090       C  0.50623578  0.22683402  0.38908110    -0.08300
C1091       C  0.52708794  0.25939633  0.38782163     0.30500
C1092       C  0.51541780  0.28044527  0.38790504    -0.20300
C1093       C  0.98269517  0.26966460  0.38888891    -0.08300
C1094       C  0.96178030  0.23705822  0.38990809     0.30500
F1095       F  0.93007052  0.22550465  0.39130269    -0.18900
H1096       H  0.95679771  0.19104548  0.39122331     0.18900
H1097       H  0.53216786  0.30539563  0.38721757     0.18900
F1098       F  0.55883211  0.27100439  0.38721822    -0.18800
C1099       C  0.56844696  0.13074714  0.51804392    -0.20300
C1100       C  0.58254614  0.15890122  0.53315636    -0.08300
C1101       C  0.58839620  0.18682793  0.52005092     0.30500
C1102       C  0.57971289  0.18630869  0.49276058    -0.20300
C1103       C  0.56478352  0.15807015  0.47793402    -0.08300
C1104       C  0.55962551  0.13023975  0.49071887     0.30500
F1105       F  0.54669508  0.10270190  0.47667381    -0.18900
H1106       H  0.56393961  0.10892767  0.52748057     0.18900
H1107       H  0.58430124  0.20813943  0.48328108     0.18900
F1108       F  0.60248422  0.21472314  0.53354688    -0.18800
C1109       C  0.96277498  0.07940593  0.32041529    -0.20300
C1110       C  0.96354291  0.07944126  0.34917476    -0.08300
C1111       C  0.93920286  0.05409196  0.36336602     0.30500
C1112       C  0.91513211  0.02909692  0.34904932    -0.20300
C1113       C  0.91445134  0.02891422  0.32035393    -0.08300
C1114       C  0.93838288  0.05446655  0.30606126     0.30500
F1115       F  0.93835495  0.05536683  0.27833167    -0.18900
H1116       H  0.98107977  0.09874946  0.30896893     0.18900
H1117       H  0.89673083  0.00992503  0.36058967     0.18900
F1118       F  0.93837702  0.05339276  0.39108854    -0.18800
C1119       C  0.71609112  0.48157413  0.29404751    -0.20300
C1120       C  0.72862194  0.01425945  0.29213252    -0.08300
C1121       C  0.76156080  0.03362525  0.28994307     0.30500
C1122       C  0.78126068  0.02034831  0.28915233    -0.20300
C1123       C  0.76865879  0.48759641  0.29072165    -0.08300
C1124       C  0.73579240  0.46832978  0.29349649     0.30500
F1125       F  0.72253653  0.43664653  0.29476686    -0.18900
H1126       H  0.69078748  0.46605943  0.29578119     0.18900
H1127       H  0.80653205  0.03581402  0.28701251     0.18900
F1128       F  0.77467986  0.06522945  0.28765428    -0.18800
C1129       C  0.62941752  0.13320185  0.37186525    -0.20300
C1130       C  0.61726520  0.14903801  0.35645632    -0.08300
C1131       C  0.62461504  0.15396658  0.32846449     0.30500
C1132       C  0.64071255  0.14027121  0.31577599    -0.20300
C1133       C  0.65020364  0.12192305  0.33079340    -0.08300
C1134       C  0.64577841  0.11981242  0.35925426     0.30500
F1135       F  0.65413753  0.10200025  0.37449126    -0.18900
H1136       H  0.62439268  0.12930559  0.39352203     0.18900
H1137       H  0.64396667  0.14234551  0.29382135     0.18900
F1138       F  0.61381029  0.16947971  0.31285927    -0.18800
C1139       C  0.55524911  0.44266643  0.37094380    -0.20300
C1140       C  0.52752107  0.42374494  0.35607128    -0.08300
C1141       C  0.52601668  0.43080459  0.32843084     0.30500
C1142       C  0.55207444  0.45573281  0.31589735    -0.20300
C1143       C  0.58016578  0.47404888  0.33049590    -0.08300
C1144       C  0.58145457  0.46743851  0.35832431     0.30500
F1145       F  0.60814841  0.48440834  0.37326859    -0.18900
H1146       H  0.55702222  0.43770164  0.39223175     0.18900
H1147       H  0.55033263  0.46044546  0.29451405     0.18900
F1148       F  0.99947510  0.41353169  0.31337572    -0.18800
C1149       C  0.70585684  0.22518991  0.05358433    -0.20300
C1150       C  0.71741534  0.20411362  0.05662942    -0.08300
C1151       C  0.75014240  0.21646792  0.06015208     0.30500
C1152       C  0.77064552  0.24902569  0.06054988    -0.20300
C1153       C  0.75918014  0.27014389  0.05722228    -0.08300
C1154       C  0.72642789  0.25780283  0.05371151     0.30500
F1155       F  0.71417125  0.27720464  0.05101418    -0.18900
H1156       H  0.68071344  0.21637274  0.05108796     0.18900
H1157       H  0.79570335  0.25773983  0.06352609     0.18900
F1158       F  0.76225604  0.19711889  0.06414816    -0.18800
C1159       C  0.63375736  0.99063374  0.03640024    -0.20300
C1160       C  0.64312036  0.01861548  0.02191569    -0.08300
C1161       C  0.64054576  0.01716158  0.99328985     0.30500
C1162       C  0.62600062  0.48804038  0.97983734    -0.20300
C1163       C  0.61399780  0.45974269  0.99453808    -0.08300
C1164       C  0.61974025  0.46148850  0.02286996     0.30500
F1165       F  0.60972620  0.43499587  0.03782825    -0.18900
H1166       H  0.63573463  0.99119051  0.05847108     0.18900
H1167       H  0.62227283  0.48761797  0.95798614     0.18900
F1168       F  0.64891078  0.04354949  0.97857713    -0.18800
C1169       C  0.68484454  0.09166437  0.16058305    -0.20300
C1170       C  0.65572560  0.08465402  0.14880597    -0.08300
C1171       C  0.62822407  0.07007061  0.16500127     0.30500
C1172       C  0.62988451  0.06208937  0.19209737    -0.20300
C1173       C  0.65896745  0.06906148  0.20378362    -0.08300
C1174       C  0.68655473  0.08418877  0.18784641     0.30500
F1175       F  0.71508461  0.09115287  0.19839347    -0.18900
H1176       H  0.70638320  0.10288371  0.14864703     0.18900
H1177       H  0.60838225  0.05081841  0.20410566     0.18900
F1178       F  0.59963140  0.06318839  0.15468767    -0.18800
C1179       C  0.56557019  0.09090200  0.99203151    -0.20300
C1180       C  0.56749056  0.09324180  0.02072613    -0.08300
C1181       C  0.54333569  0.09483509  0.03520052     0.30500
C1182       C  0.51855177  0.09518043  0.02116550    -0.20300
C1183       C  0.51710605  0.09388649  0.99243759    -0.08300
C1184       C  0.54068310  0.09120479  0.97795942     0.30500
F1185       F  0.54015357  0.08951584  0.95025794    -0.18900
H1186       H  0.58370286  0.08937385  0.98035836     0.18900
H1187       H  0.50067091  0.09704225  0.03293388     0.18900
F1188       F  0.54402826  0.09701936  0.06288325    -0.18800
O1189       O  0.62916651  0.58823823  0.10862068    -0.56800
C1190       C  0.59535448  0.59555072  0.03508752     0.75800
O1191       O  0.70378550  0.64948261  0.05251602    -0.57900
C1192       C  0.65422955  0.59155345  0.11955077     0.75800
C1193       C  0.64936313  0.54767556  0.03669331     0.78200
Cd1194     Cd  0.65097031  0.60224969  0.06202168     1.37500
O1195       O  0.59717872  0.59541650  0.06094175    -0.56800
O1196       O  0.63424813  0.54610980  0.05820212    -0.55600
C1197       C  0.69517932  0.66961291  0.05739044     0.78200
O1198       O  0.66783521  0.57508435  0.02772372    -0.58000
O1199       O  0.61909817  0.59846964  0.02198212    -0.56400
O1200       O  0.67793637  0.60058476  0.10394178    -0.56400
O1201       O  0.66635666  0.65861537  0.06347435    -0.55600
O1202       O  0.60695815  0.00557851  0.29140874    -0.56800
C1203       C  0.66027052  0.56136306  0.23270815     0.75800
O1204       O  0.67350760  0.58836403  0.32724409    -0.57900
C1205       C  0.60781731  0.99955741  0.31647116     0.75800
C1206       C  0.70683391  0.52727494  0.29149978     0.78200
Cd1207     Cd  0.66156190  0.54918547  0.28967372     1.37500
O1208       O  0.63622888  0.53995764  0.24480841    -0.56800
O1209       O  0.67773272  0.50959813  0.28671590    -0.55600
C1210       C  0.65836878  0.60032945  0.31623020     0.78200
O1211       O  0.71578507  0.55610953  0.29556129    -0.58000
O1212       O  0.68522527  0.57627804  0.24682958    -0.56400
O1213       O  0.63365301  0.51647579  0.32882365    -0.56400
O1214       O  0.64807802  0.59087799  0.29241488    -0.55600
O1215       O  0.99126417  0.60689652  0.38991480    -0.56800
C1216       C  0.55531589  0.65811824  0.44919432     0.75800
O1217       O  0.58402382  0.67319662  0.35846112    -0.57900
C1218       C  0.98954623  0.60595978  0.36404528     0.75800
C1219       C  0.51819304  0.70409739  0.38993962     0.78200
Cd1220     Cd  0.53977635  0.65820710  0.39244247     1.37500
O1221       O  0.53384272  0.63363586  0.43760864    -0.56800
O1222       O  0.50079301  0.67620282  0.39798192    -0.55600
C1223       C  0.59295009  0.65516197  0.36887783     0.78200
O1224       O  0.54611061  0.71124581  0.38289081    -0.58000
O1225       O  0.56844354  0.68280929  0.43483492    -0.56400
O1226       O  0.51135579  0.62903837  0.35146670    -0.56400
O1227       O  0.57852050  0.64069828  0.39017761    -0.55600
O1228       O  0.59286308  0.60513335  0.62352670    -0.56800
C1229       C  0.59026127  0.65895346  0.56252827     0.75800
O1230       O  0.54718999  0.64404975  0.62224379    -0.57900
C1231       C  0.59811100  0.60585674  0.64896054     0.75800
C1232       C  0.67066205  0.70573191  0.62104718     0.78200
Cd1233     Cd  0.60307979  0.65942841  0.62023632     1.37500
O1234       O  0.58816543  0.63491382  0.57417035    -0.56800
O1235       O  0.65986582  0.67698638  0.61550103    -0.55600
C1236       C  0.54732431  0.65682551  0.64473633     0.78200
O1237       O  0.65012236  0.71365180  0.62697516    -0.58000
O1238       O  0.59885325  0.68297751  0.57750658    -0.56400
O1239       O  0.60633366  0.63167847  0.66100892    -0.56400
O1240       O  0.57430266  0.67371229  0.65558748    -0.55600
O1241       O  0.94636219  0.58644999  0.90674852    -0.56800
C1242       C  0.99140397  0.59629918  0.97834993     0.75800
O1243       O  0.98103141  0.65852152  0.95414645    -0.57900
C1244       C  0.92421932  0.58957583  0.89634206     0.75800
C1245       C  0.89042045  0.54752447  0.98157751     0.78200
Cd1246     Cd  0.94069795  0.60222373  0.95372870     1.37500
O1247       O  0.98836892  0.59540309  0.95253100    -0.56800
O1248       O  0.90362596  0.57438753  0.99290466    -0.55600
C1249       C  0.96309329  0.66987470  0.95846884     0.78200
O1250       O  0.89795283  0.54692825  0.95695215    -0.58000
O1251       O  0.97124003  0.59981865  0.99193274    -0.56400
O1252       O  0.91037265  0.59931603  0.91233019    -0.56400
O1253       O  0.93395704  0.64990742  0.96141689    -0.55600
O1254       O  0.88148316  0.00309676  0.72262524    -0.56800
C1255       C  0.88551573  0.55897216  0.78283140     0.75800
O1256       O  0.90081356  0.58842190  0.68765626    -0.57900
C1257       C  0.87763120  0.99908739  0.69698100     0.75800
C1258       C  0.80611393  0.52883408  0.71984295     0.78200
Cd1259     Cd  0.87324613  0.54906183  0.72461072     1.37500
O1260       O  0.88941891  0.53877688  0.76968133    -0.56800
O1261       O  0.81700873  0.51021996  0.71970523    -0.55600
C1262       C  0.92775715  0.60111423  0.69899616     0.78200
O1263       O  0.82639062  0.55783426  0.72165714    -0.58000
O1264       O  0.87443021  0.57334233  0.76934241    -0.56400
O1265       O  0.87215455  0.51835025  0.68434824    -0.56400
O1266       O  0.92844915  0.59226197  0.72302431    -0.55600
O1267       O  0.88333655  0.50216697  0.28068183    -0.56800
C1268       C  0.83194457  0.93463328  0.22554146     0.75800
O1269       O  0.82323436  0.91261326  0.31925032    -0.57900
C1270       C  0.88810241  0.50227520  0.30615539     0.75800
C1271       C  0.78997448  0.97412518  0.28817156     0.78200
Cd1272     Cd  0.83401267  0.95109286  0.28175776     1.37500
O1273       O  0.85787288  0.95113926  0.23797639    -0.56800
O1274       O  0.81778114  0.99063283  0.27919990    -0.55600
C1275       C  0.83822500  0.90046977  0.30802712     0.78200
O1276       O  0.78175581  0.94593242  0.29439983    -0.58000
O1277       O  0.80684772  0.92717599  0.23886856    -0.56400
O1278       O  0.86864224  0.97831152  0.31930335    -0.56400
O1279       O  0.84752252  0.90910370  0.28385424    -0.55600
O1280       O  0.84943557  0.88574647  0.10628799    -0.56800
C1281       C  0.88062192  0.87329254  0.03400495     0.75800
O1282       O  0.77412791  0.82492188  0.05038813    -0.57900
C1283       C  0.82627780  0.88743610  0.11628394     0.75800
C1284       C  0.83417309  0.92840910  0.03580471     0.78200
Cd1285     Cd  0.82742507  0.87156854  0.06032806     1.37500
O1286       O  0.87994765  0.87651239  0.05968352    -0.56800
O1287       O  0.85047046  0.92814622  0.05573654    -0.55600
C1288       C  0.78158003  0.80465638  0.05795621     0.78200
O1289       O  0.81285872  0.90170930  0.02719067    -0.58000
O1290       O  0.85653470  0.86920300  0.02077600    -0.56400
O1291       O  0.80285311  0.87982238  0.10064388    -0.56400
O1292       O  0.80964007  0.81546312  0.06634388    -0.55600
O1293       O  0.53216871  0.89314297  0.91029051    -0.56800
C1294       C  0.98804837  0.87621101  0.98090991     0.75800
O1295       O  0.54477692  0.82584830  0.96371325    -0.57900
C1296       C  0.55483225  0.89218648  0.89833986     0.75800
C1297       C  0.59150722  0.92951352  0.98081155     0.78200
Cd1298     Cd  0.53958543  0.87406919  0.95462382     1.37500
O1299       O  0.99196425  0.87938833  0.95526990    -0.56800
O1300       O  0.58136656  0.92943315  0.95708626    -0.55600
C1301       C  0.51674641  0.80614292  0.95631786     0.78200
O1302       O  0.57959483  0.90288114  0.99232821    -0.58000
O1303       O  0.50836516  0.87274257  0.99414855    -0.56400
O1304       O  0.56924862  0.88127271  0.91211621    -0.56400
O1305       O  0.50048487  0.81789337  0.94759358    -0.55600
O1306       O  0.59572204  0.49855094  0.73096458    -0.56800
C1307       C  0.58829356  0.93366026  0.78639963     0.75800
O1308       O  0.57361598  0.90958683  0.69321928    -0.57900
C1309       C  0.59586812  0.50134088  0.70521369     0.75800
C1310       C  0.66965940  0.97590497  0.72513477     0.78200
Cd1311     Cd  0.60138757  0.95106885  0.72969241     1.37500
O1312       O  0.58399503  0.95486063  0.77597823    -0.56800
O1313       O  0.65737877  0.99051967  0.73646116    -0.55600
C1314       C  0.54607828  0.90103243  0.70237786     0.78200
O1315       O  0.65027636  0.94880690  0.71580408    -0.58000
O1316       O  0.59927974  0.92073112  0.77066673    -0.56400
O1317       O  0.59852603  0.98097639  0.69128397    -0.56400
O1318       O  0.54494756  0.91336107  0.72478314    -0.55600
O1319       O  0.89916309  0.86647045  0.57235288    -0.56800
C1320       C  0.87687153  0.89428628  0.64120674     0.75800
O1321       O  0.82708089  0.78619508  0.62167551    -0.57900
C1322       C  0.89095168  0.84137956  0.55906742     0.75800
C1323       C  0.92921033  0.84320748  0.64241659     0.78200
Cd1324     Cd  0.87441243  0.84030897  0.61549824     1.37500
O1325       O  0.87458652  0.89064420  0.61547893    -0.56800
O1326       O  0.93092414  0.85649042  0.61994132    -0.55600
C1327       C  0.80646979  0.79461813  0.61816605     0.78200
O1328       O  0.90147866  0.82545789  0.65153736    -0.58000
O1329       O  0.87793198  0.87292035  0.65479600    -0.56400
O1330       O  0.87381931  0.81582318  0.57146356    -0.56400
O1331       O  0.81730070  0.82358535  0.61392594    -0.55600
O1332       O  0.99940922  0.89167993  0.39461499    -0.56800
C1333       C  0.93250109  0.83967207  0.44883079     0.75800
O1334       O  0.91207066  0.82839125  0.35436657    -0.57900
C1335       C  0.00116213  0.89581117  0.36896675     0.75800
C1336       C  0.97111762  0.79273568  0.38963214     0.78200
Cd1337     Cd  0.95072973  0.83986895  0.39283674     1.37500
O1338       O  0.95825581  0.86176278  0.43955881    -0.56800
O1339       O  0.98961668  0.82134700  0.39504041    -0.55600
C1340       C  0.90039358  0.84410609  0.36498520     0.78200
O1341       O  0.94257922  0.78533274  0.38512810    -0.58000
O1342       O  0.91623425  0.81728696  0.43251139    -0.56400
O1343       O  0.97953576  0.87427836  0.35479635    -0.56400
O1344       O  0.91027561  0.85507401  0.38859932    -0.55600
C1345       C  0.88052392  0.81980775  0.51180205    -0.20300
C1346       C  0.90134603  0.84175447  0.53075860    -0.08300
C1347       C  0.93252460  0.86300520  0.52278655     0.30500
C1348       C  0.94254244  0.86220340  0.49613266    -0.20300
C1349       C  0.92172966  0.84018310  0.47705202    -0.08300
C1350       C  0.89042892  0.81905560  0.48513762     0.30500
F1351       F  0.86924507  0.79786989  0.46726452    -0.18900
H1352       H  0.85636910  0.80326293  0.51765055     0.18900
H1353       H  0.96681220  0.87861444  0.49051452     0.18900
F1354       F  0.95363208  0.88353434  0.54110585    -0.18800
C1355       C  0.98742877  0.86142605  0.64433110    -0.20300
C1356       C  0.95838552  0.85076438  0.65798489    -0.08300
C1357       C  0.95855984  0.85285773  0.68664268     0.30500
C1358       C  0.98720122  0.86724437  0.70103777    -0.20300
C1359       C  0.51638613  0.87966933  0.68734918    -0.08300
C1360       C  0.51615279  0.87544075  0.65883017     0.30500
F1361       F  0.54367437  0.88708753  0.64467703    -0.18900
H1362       H  0.98799491  0.86030576  0.62221910     0.18900
H1363       H  0.98654942  0.87022052  0.72294856     0.18900
F1364       F  0.93127800  0.84389176  0.70056538    -0.18800
C1365       C  0.59625349  0.91107410  0.82935976    -0.20300
C1366       C  0.58052984  0.92423926  0.81532905    -0.08300
C1367       C  0.55709432  0.92784752  0.82908612     0.30500
C1368       C  0.54877506  0.91725057  0.85596357    -0.20300
C1369       C  0.56411258  0.90354236  0.86990739    -0.08300
C1370       C  0.58861672  0.90136035  0.85651283     0.32900
F1371       F  0.60533193  0.88994705  0.86959867    -0.18900
H1372       H  0.61480566  0.90863270  0.81936466     0.18900
H1373       H  0.53021253  0.91979122  0.86588079     0.18900
F1374       F  0.54158769  0.94080250  0.81632903    -0.18800
C1375       C  0.93534238  0.87289367  0.97900058    -0.20300
C1376       C  0.96092104  0.87604255  0.99459029    -0.08300
C1377       C  0.95987330  0.87827649  0.02323718     0.30500
C1378       C  0.93375816  0.87751631  0.03583054    -0.20300
C1379       C  0.90810017  0.87422992  0.02025297    -0.08300
C1380       C  0.90908561  0.87182589  0.99160740     0.30500
F1381       F  0.88472570  0.86835634  0.97571675    -0.18900
H1382       H  0.93546044  0.87085557  0.95691505     0.18900
H1383       H  0.93360931  0.87939556  0.05792636     0.18900
F1384       F  0.98411556  0.88142361  0.03911877    -0.18800
C1385       C  0.86370903  0.86597600  0.36506490    -0.20300
C1386       C  0.87816090  0.85164728  0.35046823    -0.08300
C1387       C  0.87482431  0.84927410  0.32184711     0.30500
C1388       C  0.85964815  0.86327714  0.30821356    -0.20300
C1389       C  0.84719755  0.87957455  0.32276960    -0.08300
C1390       C  0.84842871  0.87979154  0.35149216     0.30500
F1391       F  0.83740777  0.89572769  0.36644945    -0.18900
H1392       H  0.86579646  0.86812827  0.38712702     0.18900
H1393       H  0.85911021  0.86277007  0.28606161     0.18900
F1394       F  0.88824131  0.83558657  0.30685884    -0.18800
C1395       C  0.85519735  0.91072326  0.15969433    -0.20300
C1396       C  0.82717792  0.89883391  0.14442264    -0.08300
C1397       C  0.80096876  0.89958808  0.15581460     0.30500
C1398       C  0.80287697  0.91175334  0.18204263    -0.20300
C1399       C  0.83091545  0.92364360  0.19726496    -0.08300
C1400       C  0.85721107  0.92318408  0.18577374     0.30500
F1401       F  0.88465902  0.93406793  0.19991363    -0.18900
H1402       H  0.87581196  0.91063122  0.15135334     0.18900
H1403       H  0.78231827  0.91184767  0.19047527     0.18900
F1404       F  0.77347830  0.88857791  0.14172544    -0.18800
C1405       C  0.86893821  0.96632385  0.65504059    -0.20300
C1406       C  0.87886847  0.97309065  0.68244003    -0.08300
C1407       C  0.88913893  0.95433803  0.69572648     0.30500
C1408       C  0.88861206  0.92895712  0.68208606    -0.20300
C1409       C  0.87814460  0.92186684  0.65488971    -0.08300
C1410       C  0.86855815  0.94101047  0.64134962     0.30500
F1411       F  0.85793036  0.93476463  0.61517801    -0.18900
H1412       H  0.86088478  0.98033666  0.64427104     0.18900
H1413       H  0.89647008  0.91480223  0.69287976     0.18900
F1414       F  0.89978246  0.96049454  0.72187820    -0.18800
C1415       C  0.71797995  0.97436247  0.70881759    -0.20300
C1416       C  0.70473878  0.99013311  0.72291375    -0.08300
C1417       C  0.72542623  0.51972437  0.73468462     0.30500
C1418       C  0.75832951  0.53294757  0.73237669    -0.20300
C1419       C  0.77143827  0.51670276  0.71898622    -0.08300
C1420       C  0.75089294  0.98736009  0.70697039     0.30500
F1421       F  0.76261281  0.97113768  0.69337827    -0.18900
H1422       H  0.70285279  0.95177144  0.69939818     0.18900
H1423       H  0.77357452  0.55534308  0.74208283     0.18900
F1424       F  0.71403806  0.53568720  0.74912984    -0.18800
C1425       C  0.00873573  0.72478875  0.96355038    -0.20300
C1426       C  0.97607842  0.70463717  0.95946166    -0.08300
C1427       C  0.95691368  0.71824287  0.95501439     0.30500
C1428       C  0.97034155  0.75108230  0.95398640    -0.20300
C1429       C  0.50309246  0.77126439  0.95781949    -0.08300
C1430       C  0.52205310  0.75760579  0.96302740     0.30500
F1431       F  0.55362204  0.77585200  0.96715859    -0.18900
H1432       H  0.02412565  0.71510680  0.96711811     0.18900
H1433       H  0.95498750  0.76073413  0.95013833     0.18900
F1434       F  0.92534512  0.69991033  0.95082672    -0.18800
C1435       C  0.85809355  0.98676176  0.03794546    -0.20300
C1436       C  0.84157647  0.95868568  0.02287699    -0.08300
C1437       C  0.83677477  0.96056907  0.99479289     0.30500
C1438       C  0.85084712  0.48985982  0.98174359    -0.20300
C1439       C  0.86944377  0.51786927  0.99647125    -0.08300
C1440       C  0.87167651  0.51604784  0.02501936     0.30500
F1441       F  0.88924902  0.54229757  0.04018621    -0.18900
H1442       H  0.86193869  0.98600551  0.05966624     0.18900
H1443       H  0.84858537  0.49050280  0.95977089     0.18900
F1444       F  0.82088988  0.93408697  0.97951117    -0.18800
C1445       C  0.91495452  0.55704206  0.82401575    -0.20300
C1446       C  0.89448503  0.56612817  0.81211156    -0.08300
C1447       C  0.88412630  0.58328460  0.82811586     0.30500
C1448       C  0.89388369  0.59076748  0.85537740    -0.20300
C1449       C  0.91457928  0.58189386  0.86721666    -0.08300
C1450       C  0.92517820  0.56503188  0.85110316     0.30500
F1451       F  0.94522868  0.55599439  0.86152178    -0.18900
H1452       H  0.92360287  0.54411582  0.81212279     0.18900
H1453       H  0.88531700  0.60379460  0.86724492     0.18900
F1454       F  0.86441558  0.59267739  0.81753566    -0.18800
C1455       C  0.71676356  0.76106773  0.62107898    -0.20300
C1456       C  0.70540290  0.72853589  0.62037059    -0.08300
C1457       C  0.72763968  0.71805869  0.61845785     0.30500
C1458       C  0.76022951  0.73954671  0.61798106    -0.20300
C1459       C  0.77163995  0.77206022  0.61883450    -0.08300
C1460       C  0.74938061  0.78259900  0.62001945     0.30500
F1461       F  0.75899966  0.81374235  0.62034544    -0.18900
H1462       H  0.70036088  0.76991264  0.62216789     0.18900
H1463       H  0.77658382  0.73065938  0.61669675     0.18900
F1464       F  0.71802603  0.68694438  0.61721950    -0.18800
C1465       C  0.48871194  0.63382188  0.64288742    -0.20300
C1466       C  0.51699404  0.64999618  0.65791234    -0.08300
C1467       C  0.51507190  0.65486287  0.68606793     0.30500
C1468       C  0.98553827  0.64102039  0.69915531    -0.20300
C1469       C  0.95743779  0.62260251  0.68438714    -0.08300
C1470       C  0.95926576  0.62042676  0.65585780     0.30500
F1471       F  0.93285570  0.60272900  0.64078203    -0.18900
H1472       H  0.48936197  0.62985960  0.62115938     0.18900
H1473       H  0.98477800  0.64319117  0.72114604     0.18900
F1474       F  0.54166232  0.67079396  0.70134560    -0.18800
C1475       C  0.60004464  0.57959303  0.69222335    -0.20300
C1476       C  0.59513536  0.57819552  0.66378719    -0.08300
C1477       C  0.58790010  0.55032116  0.64973483     0.30500
C1478       C  0.58748374  0.52527394  0.66355839    -0.20300
C1479       C  0.59365329  0.52712940  0.69173499    -0.08300
C1480       C  0.59902576  0.55421606  0.70616887     0.30500
F1481       F  0.60431252  0.55664410  0.73353596    -0.18900
H1482       H  0.60510943  0.60053425  0.70367007     0.18900
H1483       H  0.58265444  0.50444290  0.65204303     0.18900
F1484       F  0.58178487  0.54733981  0.62250699    -0.18800
C1485       C  0.97350317  0.71600618  0.39017818    -0.20300
C1486       C  0.50622408  0.72682102  0.38909294    -0.08300
C1487       C  0.52707968  0.75938282  0.38783375     0.30500
C1488       C  0.51541399  0.78043567  0.38791989    -0.20300
C1489       C  0.98270670  0.76967319  0.38888155    -0.08300
C1490       C  0.96179528  0.73706672  0.38990459     0.30500
F1491       F  0.93008498  0.72550927  0.39130057    -0.18900
H1492       H  0.95681915  0.69105770  0.39122760     0.18900
H1493       H  0.53216674  0.80538529  0.38723121     0.18900
F1494       F  0.55882316  0.77098644  0.38722788    -0.18800
C1495       C  0.56845167  0.63076013  0.51804511    -0.20300
C1496       C  0.58254376  0.65891319  0.53315884    -0.08300
C1497       C  0.58838798  0.68683865  0.52005406     0.30500
C1498       C  0.57970528  0.68631850  0.49276293    -0.20300
C1499       C  0.56478220  0.65807998  0.47793577    -0.08300
C1500       C  0.55963122  0.63025191  0.49071984     0.30500
F1501       F  0.54670964  0.60271556  0.47667301    -0.18900
H1502       H  0.56394975  0.60894195  0.52748070     0.18900
H1503       H  0.58428852  0.70814756  0.48328347     0.18900
F1504       F  0.60247003  0.71473322  0.53355124    -0.18800
C1505       C  0.96276428  0.57940799  0.32042352    -0.20300
C1506       C  0.96351451  0.57946960  0.34918377    -0.08300
C1507       C  0.93914880  0.55414823  0.36338089     0.30500
C1508       C  0.91507629  0.52914838  0.34906987    -0.20300
C1509       C  0.91441911  0.52893410  0.32037383    -0.08300
C1510       C  0.93837024  0.55446443  0.30607472     0.30500
F1511       F  0.93836195  0.55533669  0.27834373    -0.18900
H1512       H  0.98108719  0.59873159  0.30897247     0.18900
H1513       H  0.89665765  0.50999609  0.36061435     0.18900
F1514       F  0.93830194  0.55347961  0.39110353    -0.18800
C1515       C  0.71609510  0.98157194  0.29407550    -0.20300
C1516       C  0.72862286  0.51426438  0.29212961    -0.08300
C1517       C  0.76156473  0.53362998  0.28996735     0.30500
C1518       C  0.78126236  0.52035017  0.28917785    -0.20300
C1519       C  0.76866269  0.98759699  0.29072189    -0.08300
C1520       C  0.73579917  0.96833030  0.29352401     0.30500
F1521       F  0.72254813  0.93664905  0.29482209    -0.18900
H1522       H  0.69079345  0.96605784  0.29583039     0.18900
H1523       H  0.80653657  0.53581559  0.28706035     0.18900
F1524       F  0.77469025  0.56523760  0.28770721    -0.18800
C1525       C  0.62942072  0.63320894  0.37186162    -0.20300
C1526       C  0.61725467  0.64903239  0.35645226    -0.08300
C1527       C  0.62458720  0.65394655  0.32845683     0.30500
C1528       C  0.64068566  0.64025322  0.31576745    -0.20300
C1529       C  0.65019262  0.62191902  0.33078656    -0.08300
C1530       C  0.64578087  0.61981953  0.35924899     0.30500
F1531       F  0.65415283  0.60201809  0.37448714    -0.18900
H1532       H  0.62440724  0.62932231  0.39352061     0.18900
H1533       H  0.64392754  0.64231712  0.29381136     0.18900
F1534       F  0.61376317  0.66944143  0.31284980    -0.18800
C1535       C  0.55522567  0.94267392  0.37093955    -0.20300
C1536       C  0.52750527  0.92374160  0.35606179    -0.08300
C1537       C  0.52601316  0.93078464  0.32841405     0.30500
C1538       C  0.55207536  0.95570897  0.31588057    -0.20300
C1539       C  0.58015837  0.97403728  0.33048651    -0.08300
C1540       C  0.58143516  0.96744091  0.35832044     0.30500
F1541       F  0.60812173  0.98441906  0.37327127    -0.18900
H1542       H  0.55699038  0.93772128  0.39223253     0.18900
H1543       H  0.55034328  0.96041004  0.29449230     0.18900
F1544       F  0.99946044  0.91356593  0.31339741    -0.18800
C1545       C  0.70585283  0.72519699  0.05357721    -0.20300
C1546       C  0.71741271  0.70412029  0.05660961    -0.08300
C1547       C  0.75014259  0.71647395  0.06011097     0.30500
C1548       C  0.77064644  0.74903141  0.06050313    -0.20300
C1549       C  0.75917875  0.77014975  0.05719177    -0.08300
C1550       C  0.72642432  0.75780953  0.05369955     0.30500
F1551       F  0.71416609  0.77721168  0.05101748    -0.18900
H1552       H  0.68070772  0.71638055  0.05109627     0.18900
H1553       H  0.79570636  0.75774523  0.06346405     0.18900
F1554       F  0.76225933  0.69712514  0.06409200    -0.18800
C1555       C  0.63374276  0.49064374  0.03640910    -0.20300
C1556       C  0.64311205  0.51862304  0.02191854    -0.08300
C1557       C  0.64055190  0.51716413  0.99329163     0.30500
C1558       C  0.62598945  0.98804062  0.97983139    -0.20300
C1559       C  0.61399505  0.95974045  0.99452700    -0.08300
C1560       C  0.61974952  0.96148102  0.02285653     0.30500
F1561       F  0.60974425  0.93498538  0.03780864    -0.18900
H1562       H  0.63571036  0.49120425  0.05848083     0.18900
H1563       H  0.62225102  0.98762248  0.95798224     0.18900
F1564       F  0.64892713  0.54354958  0.97857190    -0.18800
C1565       C  0.68484651  0.59167791  0.16058307    -0.20300
C1566       C  0.65572437  0.58464990  0.14880208    -0.08300
C1567       C  0.62821918  0.57004205  0.16499101     0.30500
C1568       C  0.62987985  0.56205638  0.19208553    -0.20300
C1569       C  0.65896650  0.56904955  0.20377681    -0.08300
C1570       C  0.68655674  0.58419931  0.18784555     0.30500
F1571       F  0.71509032  0.59118462  0.19839823    -0.18900
H1572       H  0.70638769  0.60291586  0.14865153     0.18900
H1573       H  0.60837502  0.55076729  0.20408914     0.18900
F1574       F  0.59962270  0.56313933  0.15467219    -0.18800
C1575       C  0.56554664  0.59090655  0.99205579    -0.20300
C1576       C  0.56746886  0.59324710  0.02075008    -0.08300
C1577       C  0.54331724  0.59484540  0.03522574     0.30500
C1578       C  0.51853654  0.59519837  0.02119102    -0.20300
C1579       C  0.51709118  0.59390552  0.99246289    -0.08300
C1580       C  0.54066349  0.59121647  0.97798455     0.30500
F1581       F  0.54013368  0.58952772  0.95028310    -0.18900
H1582       H  0.58367613  0.58937380  0.98038162     0.18900
H1583       H  0.50065791  0.59706431  0.03295926     0.18900
F1584       F  0.54400984  0.59702640  0.06290873    -0.18800
loop_ 
_geom_bond_atom_site_label_1 
_geom_bond_atom_site_label_2 
_geom_bond_distance 
_geom_bond_site_symmetry_2 
_ccdc_geom_bond_type 
O1            C4   1.267       .  A
O1           Cd6   2.466       .  S
C2           O11   1.265       .  A
C2            O7   1.269       .  A
C2          C388   1.483       .  S
O3            C9   1.270       .  A
O3           Cd6   2.509       .  S
C4           O12   1.267       .  A
C4          C378   1.482       .  S
C5           O10   1.270       .  A
C5            O8   1.263       .  A
C5          C368   1.485       .  S
Cd6          O13   2.480       .  S
Cd6          O12   2.461       .  S
Cd6          O11   2.450       .  S
Cd6           O7   2.470       .  S
Cd6          O10   2.514       .  S
Cd6           O8   2.460       .  S
C9           O13   1.264       .  A
C9          C358   1.491       .  S
O14          C17   1.268       .  A
O14        Cd415   2.453       .  S
C15          O24   1.268       .  A
C15          O20   1.268       .  A
C15         C381   1.476       .  S
O16          C22   1.269       .  A
O16         Cd19   2.505       .  S
C17         O421   1.265       .  A
C17         C351   1.478       .  S
C18          O23   1.271       .  A
C18          O21   1.263       .  A
C18         C328   1.484       .  S
Cd19         O26   2.440       .  S
Cd19         O25   2.439       .  S
Cd19         O24   2.447       .  S
Cd19         O20   2.448       .  S
Cd19         O23   2.506       .  S
Cd19         O21   2.433       .  S
Cd19        O410   2.453       .  S
C22          O26   1.261       .  A
C22         C341   1.482       .  S
O25         C413   1.265   1_545  A
O27          C30   1.268       .  A
O27        Cd824   2.457       .  S
C28          O37   1.268       .  A
C28          O33   1.268       .  A
C28         C311   1.481       .  S
O29          C35   1.271       .  A
O29         Cd32   2.524       .  S
C30         O830   1.265       .  A
C30         C318   1.479       .  S
C31          O36   1.271       .  A
C31          O34   1.265       .  A
C31         C298   1.492       .  S
Cd32         O39   2.431       .  S
Cd32         O38   2.450       .  S
Cd32         O37   2.455       .  S
Cd32         O33   2.469       .  S
Cd32         O36   2.508       .  S
Cd32         O34   2.471       .  S
Cd32        O819   2.457   1_455  S
C35          O39   1.262       .  A
C35         C338   1.486       .  S
O38         C822   1.265   1_455  A
O40          C43   1.268       .  A
O40         Cd45   2.460       .  S
C41          O50   1.267       .  A
C41          O46   1.269       .  A
C41         C308   1.486       .  S
O42          C48   1.262       .  A
O42         Cd45   2.439       .  S
C43          O51   1.266       .  A
C43         C288   1.483       .  S
C44          O49   1.271       .  A
C44          O47   1.265       .  A
C44         C268   1.496       .  S
Cd45         O52   2.529       .  S
Cd45         O51   2.469       .  S
Cd45         O50   2.451       .  S
Cd45         O46   2.484       .  S
Cd45         O49   2.527       .  S
Cd45         O47   2.465       .  S
C48          O52   1.270       .  A
C48         C278   1.489       .  S
O53          C56   1.269       .  A
O53         Cd58   2.480       .  S
C54          O63   1.264       .  A
C54          O59   1.270       .  A
C54        C1183   1.485       .  S
O55          C61   1.263       .  A
O55         Cd58   2.471       .  S
C56          O64   1.268       .  A
C56         C261   1.489       .  S
C57          O62   1.263       .  A
C57          O60   1.269       .  A
C57         C251   1.491       .  S
Cd58         O65   2.543       .  S
Cd58         O64   2.471       .  S
Cd58         O63   2.430       .  S
Cd58         O59   2.504       .  S
Cd58         O62   2.474       .  S
Cd58         O60   2.523       .  S
C61          O65   1.271       .  A
C61         C238   1.496       .  S
O66          C69   1.269       .  A
O66        Cd467   2.478       .  S
C67          O76   1.267       .  A
C67          O72   1.269       .  A
C67         C258   1.487       .  S
O68          C74   1.268       .  A
O68         Cd71   2.500       .  S
C69         O473   1.265       .  A
C69         C218   1.484       .  S
C70          O75   1.270       .  A
C70          O73   1.262       .  A
C70         C231   1.487       .  S
Cd71         O78   2.465       .  S
Cd71         O77   2.459       .  S
Cd71         O76   2.474       .  S
Cd71         O72   2.480       .  S
Cd71         O75   2.526       .  S
Cd71         O73   2.452       .  S
Cd71        O462   2.478       .  S
C74          O78   1.261       .  A
C74         C281   1.484       .  S
O77         C465   1.265   1_545  A
O79          C82   1.268       .  A
O79        Cd480   2.467   1_545  S
C80          O89   1.268       .  A
C80          O85   1.267       .  A
C80         C211   1.474       .  S
O81          C87   1.270       .  A
O81         Cd84   2.500       .  S
C82         O486   1.263   1_545  A
C82         C321   1.473       .  S
C83          O88   1.272       .  A
C83          O86   1.263       .  A
C83         C331   1.485       .  S
Cd84         O91   2.454       .  S
Cd84         O90   2.400       .  S
Cd84         O89   2.445       .  S
Cd84         O85   2.434       .  S
Cd84         O88   2.505       .  S
Cd84         O86   2.433       .  S
Cd84        O475   2.467       .  S
C87          O91   1.263       .  A
C87         C201   1.487       .  S
O90         C478   1.263       .  A
O92          C95   1.268       .  A
O92         Cd97   2.438       .  S
C93         O102   1.266       .  A
C93          O98   1.268       .  A
C93         C191   1.476       .  S
O94         C100   1.272       .  A
O94         Cd97   2.513       .  S
C95         O103   1.267       .  A
C95         C208   1.476       .  S
C96         O101   1.273       .  A
C96          O99   1.263       .  A
C96         C248   1.487       .  S
Cd97        O104   2.460       .  S
Cd97        O103   2.439       .  S
Cd97        O102   2.432       .  S
Cd97         O98   2.446       .  S
Cd97        O101   2.526       .  S
Cd97         O99   2.434       .  S
C100        O104   1.264       .  A
C100        C361   1.492       .  S
O105        C108   1.269       .  A
O105       Cd110   2.463       .  S
C106        O111   1.267       .  A
C106        O907   1.264       .  A
C106        C188   1.476       .  S
O107        C113   1.273       .  A
O107       Cd110   2.540       .  S
C108        O116   1.269       .  A
C108        C181   1.485       .  S
C109        O114   1.271       .  A
C109        O112   1.262       .  A
C109        C371   1.494       .  S
Cd110       O117   2.476       .  S
Cd110       O116   2.455       .  S
Cd110       O115   2.438       .  S
Cd110       O114   2.541       .  S
Cd110       O112   2.460       .  S
Cd110       O903   2.458   1_455  S
O111       Cd902   2.458       .  S
C113        O117   1.263       .  A
C113        C241   1.499       .  S
O115        C898   1.264   1_455  A
O118        C121   1.268   1_565  A
O118       Cd519   2.477       .  S
C119        O128   1.269       .  A
C119        O124   1.267       .  A
C119        C178   1.480       .  S
O120        C126   1.271       .  A
O120       Cd123   2.530       .  S
C121        O525   1.265   1_545  A
C121        C291   1.479       .  S
C122        O127   1.272       .  A
C122        O125   1.264       .  A
C122        C228   1.495       .  S
Cd123       O130   2.448       .  S
Cd123       O129   2.435       .  S
Cd123       O128   2.473       .  S
Cd123       O124   2.454       .  S
Cd123       O127   2.528       .  S
Cd123       O125   2.461       .  S
Cd123       O514   2.476       .  S
C126        O130   1.264       .  A
C126        C171   1.492       .  S
O129        C517   1.265       .  A
O131        C134   1.266       .  A
O131       Cd136   2.457       .  S
C132        O141   1.266       .  A
C132        O137   1.268       .  A
C132        C221   1.480       .  S
O133        C139   1.272       .  A
O133       Cd136   2.528       .  S
C134        O142   1.266       .  A
C134        C158   1.471       .  S
C135        O140   1.271       .  A
C135        O138   1.262       .  A
C135        C168   1.488       .  S
Cd136       O143   2.480       .  S
Cd136       O142   2.455       .  S
Cd136       O141   2.446       .  S
Cd136       O137   2.464       .  S
Cd136       O140   2.519       .  S
Cd136       O138   2.466       .  S
C139        O143   1.264       .  A
C139        C271   1.497       .  S
O144        C147   1.268       .  A
O144       Cd149   2.472       .  S
C145        O154   1.266       .  A
C145        O150   1.268       .  A
C145        C161   1.481       .  S
O146        C152   1.271       .  A
O146       Cd149   2.521       .  S
C147        O155   1.265       .  A
C147       C1140   1.478       .  S
C148        O153   1.269       .  A
C148        O151   1.263       .  A
C148        C301   1.493       .  S
Cd149       O156   2.436       .  S
Cd149       O155   2.440       .  S
Cd149       O154   2.445       .  S
Cd149       O150   2.471       .  S
Cd149       O153   2.528       .  S
Cd149       O151   2.475       .  S
C152        O156   1.263       .  A
C152        C198   1.488       .  S
C157        C158   1.400       .  A
C157        C162   1.397       .  A
C157        H164   1.086       .  S
C158        C159   1.406       .  A
C159        C160   1.399       .  A
C159        F166   1.358       .  S
C160        C161   1.405       .  A
C160        H165   1.085       .  S
C161        C162   1.410       .  A
C162        F163   1.357       .  S
C167        C168   1.409       .  A
C167        C964   1.407       .  A
C167        H174   1.084       .  S
C168        C169   1.405       .  A
C169        C170   1.401       .  A
C169        F176   1.357       .  S
C170        C963   1.408       .  A
C170        H175   1.084       .  S
C171        C172   1.409       .  A
C171        C962   1.408   1_455  A
C172        C959   1.407   1_455  A
C172        F173   1.357       .  S
C177        C178   1.403       .  A
C177        C182   1.400       .  A
C177        H184   1.083       .  S
C178        C179   1.408       .  A
C179        C180   1.400       .  A
C179        F186   1.358       .  S
C180        C181   1.406       .  A
C180        H185   1.085       .  S
C181        C182   1.409       .  A
C182        F183   1.357       .  S
C187        C188   1.403       .  A
C187        C192   1.396       .  A
C187        H194   1.085       .  S
C188        C189   1.408   1_556  A
C189        C190   1.395       .  A
C189        F196   1.357       .  S
C190        C191   1.404       .  A
C190        H195   1.085       .  S
C191        C192   1.409   1_554  A
C192        F193   1.357       .  S
C197        C198   1.408       .  A
C197        C202   1.399       .  A
C197        H204   1.084       .  S
C198        C199   1.408       .  A
C199        C200   1.404       .  A
C199        F206   1.357       .  S
C200        C201   1.409       .  A
C200        H205   1.084       .  S
C201        C202   1.407       .  A
C202        F203   1.357       .  S
C207        C208   1.404       .  A
C207        C212   1.395       .  A
C207        H214   1.085       .  S
C208        C209   1.408       .  A
C209        C210   1.396       .  A
C209        F216   1.357       .  S
C210        C211   1.403       .  A
C210        H215   1.084       .  S
C211        C212   1.407       .  A
C212        F213   1.358       .  S
C217        C218   1.407       .  A
C217        C222   1.400       .  A
C217        H224   1.084       .  S
C218        C219   1.407       .  A
C219        C220   1.398       .  A
C219        F226   1.357       .  S
C220        C221   1.405       .  A
C220        H225   1.084       .  S
C221        C222   1.407       .  A
C222        F223   1.358       .  S
C227        C228   1.406       .  A
C227        C232   1.404       .  A
C227        H234   1.082       .  S
C228        C625   1.414       .  A
C229        C230   1.404       .  A
C229        C624   1.414   1_545  A
C229        F236   1.357       .  S
C230        C231   1.403       .  A
C230        H235   1.082       .  S
C231        C628   1.410   1_545  A
C232        C627   1.410       .  A
C232        F233   1.358       .  S
C237        C238   1.410       .  A
C237       C1034   1.406       .  A
C237        H244   1.082       .  S
C238        C239   1.407       .  A
C239        C240   1.407       .  A
C239        F246   1.358       .  S
C240       C1033   1.412       .  A
C240        H245   1.081       .  S
C241        C242   1.407       .  A
C241       C1032   1.412   1_455  A
C242       C1029   1.406       .  A
C242        F243   1.357       .  S
C247        C248   1.408       .  A
C247        C648   1.402       .  A
C247        H254   1.084       .  S
C248        C249   1.405   1_554  A
C249        C646   1.405       .  A
C249        F256   1.357       .  S
C250        C251   1.410   1_565  A
C250        C645   1.405       .  A
C250        H255   1.083       .  S
C251        C252   1.408   1_556  A
C252        C643   1.402   1_545  A
C252        F253   1.357       .  S
C257        C258   1.405       .  A
C257        C262   1.401       .  A
C257        H264   1.085       .  S
C258        C259   1.410       .  A
C259        C260   1.402       .  A
C259        F266   1.357       .  S
C260        C261   1.407       .  A
C260        H265   1.085       .  S
C261        C262   1.409       .  A
C262        F263   1.357       .  S
C267        C268   1.406       .  A
C267        C272   1.406       .  A
C267        H274   1.082       .  S
C268        C269   1.412       .  A
C269        C270   1.404       .  A
C269        F276   1.357       .  S
C270        C271   1.405       .  A
C270        H275   1.082       .  S
C271        C272   1.414       .  A
C272        F273   1.357       .  S
C277        C278   1.408   1_655  A
C277       C1074   1.399       .  A
C277        H284   1.083       .  S
C278        C279   1.408       .  A
C279       C1072   1.404   1_455  A
C279        F286   1.357       .  S
C280        C281   1.408       .  A
C280       C1071   1.404       .  A
C280        H285   1.083       .  S
C281        C282   1.406       .  A
C282       C1069   1.399       .  A
C282        F283   1.358       .  S
C287        C288   1.408       .  A
C287        C292   1.401       .  A
C287        H294   1.083       .  S
C288        C289   1.407       .  A
C289        C290   1.396       .  A
C289        F296   1.357       .  S
C290        C291   1.405       .  A
C290        H295   1.083       .  S
C291        C292   1.407       .  A
C292        F293   1.358       .  S
C297        C302   1.405       .  A
C297       C1090   1.409       .  A
C297        H304   1.084       .  S
C298        C299   1.407       .  A
C298       C1089   1.409   1_455  A
C299        C300   1.403       .  A
C299        F306   1.357       .  S
C300       C1093   1.409   1_455  A
C300        H305   1.084       .  S
C301        C302   1.408       .  A
C301       C1092   1.409       .  A
C302        F303   1.357       .  S
C307        C308   1.406       .  A
C307        C312   1.401       .  A
C307        H314   1.085       .  S
C308        C309   1.410       .  A
C309        C310   1.398       .  A
C309        F316   1.357       .  S
C310        C311   1.403       .  A
C310        H315   1.085       .  S
C311        C312   1.409       .  A
C312        F313   1.358       .  S
C317        C318   1.408       .  A
C317        C322   1.399       .  A
C317        H324   1.083       .  S
C318        C319   1.406       .  A
C319        C320   1.392       .  A
C319        F326   1.357       .  S
C320        C321   1.404       .  A
C320        H325   1.083       .  S
C321        C322   1.405       .  A
C322        F323   1.358       .  S
C327        C332   1.399       .  A
C327        C724   1.408       .  A
C327        H334   1.084       .  S
C328        C329   1.406       .  A
C328        C723   1.408   1_545  A
C329        C330   1.401       .  A
C329        F336   1.357       .  S
C330        C727   1.409   1_545  A
C330        H335   1.084       .  S
C331        C332   1.405       .  A
C331        C726   1.409       .  A
C332        F333   1.357       .  S
C337        C338   1.408       .  A
C337        C342   1.399       .  A
C337        H344   1.083       .  S
C338        C339   1.406       .  A
C339        C340   1.402       .  A
C339        F346   1.357       .  S
C340        C341   1.408       .  A
C340        H345   1.083       .  S
C341        C342   1.405       .  A
C342        F343   1.358       .  S
C347        C348   1.403       .  A
C347        C352   1.397       .  A
C347        H354   1.084       .  S
C348        C939   1.478       .  S
C348        C349   1.409       .  A
C349        C350   1.395       .  A
C349       F1148   1.357   1_455  S
C350        C351   1.403       .  A
C350        H355   1.085       .  S
C351        C352   1.410       .  A
C352        F353   1.358       .  S
F356       C1141   1.357       .  S
C357        C358   1.409       .  A
C357        C362   1.405       .  A
C357        H364   1.084       .  S
C358        C359   1.407       .  A
C359        C360   1.402       .  A
C359        F366   1.357       .  S
C360        C361   1.409       .  A
C360        H365   1.084       .  S
C361        C362   1.408       .  A
C362        F363   1.357       .  S
C367        C368   1.407   1_565  A
C367        C768   1.405       .  A
C367        H374   1.083       .  S
C368        C369   1.405   1_554  A
C369        C766   1.402   1_545  A
C369        F376   1.358       .  S
C370        C371   1.410       .  A
C370        C765   1.402       .  A
C370        H375   1.083       .  S
C371        C372   1.409   1_556  A
C372        C763   1.405       .  A
C372        F373   1.357       .  S
C377        C378   1.407       .  A
C377        C382   1.399       .  A
C377        H384   1.083       .  S
C378        C379   1.409       .  A
C379        C380   1.398       .  A
C379        F386   1.357       .  S
C380        C381   1.404       .  A
C380        H385   1.083       .  S
C381        C382   1.406       .  A
C382        F383   1.358       .  S
C387        C388   1.408   1_556  A
C387        C392   1.401       .  A
C387        H394   1.083       .  S
C388        C389   1.406       .  A
C389        C390   1.397       .  A
C389        F396   1.357       .  S
C390        C391   1.407   1_554  A
C390        H395   1.083       .  S
C391        C846   1.485   1_455  S
C391        C392   1.408       .  A
C392        F393   1.357       .  S
O397        C400   1.267       .  A
O397       Cd402   2.466       .  S
C398        O407   1.265       .  A
C398        O403   1.269       .  A
C398        C784   1.483       .  S
O399        C405   1.270       .  A
O399       Cd402   2.510       .  S
C400        O408   1.267       .  A
C400        C774   1.482       .  S
C401        O406   1.270       .  A
C401        O404   1.263       .  A
C401        C764   1.485       .  S
Cd402       O409   2.480       .  S
Cd402       O408   2.461       .  S
Cd402       O407   2.450       .  S
Cd402       O403   2.470       .  S
Cd402       O406   2.514       .  S
Cd402       O404   2.460       .  S
C405        O409   1.264       .  A
C405        C754   1.491       .  S
O410        C413   1.268   1_545  A
C411        O420   1.268       .  A
C411        O416   1.268       .  A
C411        C777   1.476       .  S
O412        C418   1.269       .  A
O412       Cd415   2.504       .  S
C413        C747   1.478       .  S
C414        O419   1.271       .  A
C414        O417   1.263       .  A
C414        C724   1.484       .  S
Cd415       O422   2.440       .  S
Cd415       O421   2.439       .  S
Cd415       O420   2.447       .  S
Cd415       O416   2.448       .  S
Cd415       O419   2.506       .  S
Cd415       O417   2.433       .  S
C418        O422   1.261       .  A
C418        C737   1.482       .  S
O423        C426   1.268       .  A
O423      Cd1220   2.457       .  S
C424        O433   1.268       .  A
C424        O429   1.268       .  A
C424        C707   1.481       .  S
O425        C431   1.271       .  A
O425       Cd428   2.524       .  S
C426       O1226   1.265       .  A
C426        C714   1.479       .  S
C427        O432   1.271       .  A
C427        O430   1.265       .  A
C427        C694   1.492       .  S
Cd428      O1215   2.457   1_455  S
Cd428       O435   2.430       .  S
Cd428       O434   2.450       .  S
Cd428       O433   2.455       .  S
Cd428       O429   2.469       .  S
Cd428       O432   2.508       .  S
Cd428       O430   2.471       .  S
C431        O435   1.262       .  A
C431        C734   1.486       .  S
O434       C1218   1.265   1_455  A
O436        C439   1.268       .  A
O436       Cd441   2.460       .  S
C437        O446   1.267       .  A
C437        O442   1.269       .  A
C437        C704   1.486       .  S
O438        C444   1.262       .  A
O438       Cd441   2.439       .  S
C439        O447   1.266       .  A
C439        C684   1.483       .  S
C440        O445   1.271       .  A
C440        O443   1.265       .  A
C440        C664   1.496       .  S
Cd441       O448   2.529       .  S
Cd441       O447   2.469       .  S
Cd441       O446   2.451       .  S
Cd441       O442   2.484       .  S
Cd441       O445   2.527       .  S
Cd441       O443   2.465       .  S
C444        O448   1.270       .  A
C444        C674   1.489       .  S
O449        C452   1.269       .  A
O449       Cd454   2.480       .  S
C450        O459   1.264       .  A
C450        O455   1.270       .  A
C450       C1579   1.485       .  S
O451        C457   1.263       .  A
O451       Cd454   2.471       .  S
C452        O460   1.268       .  A
C452        C657   1.489       .  S
C453        O458   1.263       .  A
C453        O456   1.269       .  A
C453        C647   1.491       .  S
Cd454       O461   2.543       .  S
Cd454       O460   2.471       .  S
Cd454       O459   2.430       .  S
Cd454       O455   2.503       .  S
Cd454       O458   2.474       .  S
Cd454       O456   2.523       .  S
C457        O461   1.271       .  A
C457        C634   1.496       .  S
O462        C465   1.269   1_545  A
C463        O472   1.267       .  A
C463        O468   1.269       .  A
C463        C654   1.487       .  S
O464        C470   1.268       .  A
O464       Cd467   2.500       .  S
C465        C614   1.484       .  S
C466        O471   1.270       .  A
C466        O469   1.262       .  A
C466        C627   1.487       .  S
Cd467       O474   2.465       .  S
Cd467       O473   2.459       .  S
Cd467       O472   2.474       .  S
Cd467       O468   2.480       .  S
Cd467       O471   2.526       .  S
Cd467       O469   2.452       .  S
C470        O474   1.261       .  A
C470        C677   1.484       .  S
O475        C478   1.268       .  A
C476        O485   1.268       .  A
C476        O481   1.267       .  A
C476        C607   1.474       .  S
O477        C483   1.270       .  A
O477       Cd480   2.500       .  S
C478        C717   1.473       .  S
C479        O484   1.273       .  A
C479        O482   1.263       .  A
C479        C727   1.485       .  S
Cd480       O487   2.454       .  S
Cd480       O486   2.400       .  S
Cd480       O485   2.446       .  S
Cd480       O481   2.434       .  S
Cd480       O484   2.505       .  S
Cd480       O482   2.433       .  S
C483        O487   1.263       .  A
C483        C597   1.487       .  S
O488        C491   1.268       .  A
O488       Cd493   2.439       .  S
C489        O498   1.266       .  A
C489        O494   1.268       .  A
C489        C587   1.476       .  S
O490        C496   1.272       .  A
O490       Cd493   2.513       .  S
C491        O499   1.267       .  A
C491        C604   1.476       .  S
C492        O497   1.273       .  A
C492        O495   1.263       .  A
C492        C644   1.487       .  S
Cd493       O500   2.460       .  S
Cd493       O499   2.439       .  S
Cd493       O498   2.432       .  S
Cd493       O494   2.446       .  S
Cd493       O497   2.526       .  S
Cd493       O495   2.434       .  S
C496        O500   1.264       .  A
C496        C757   1.492       .  S
O501        C504   1.269       .  A
O501       Cd506   2.463       .  S
C502       O1303   1.264       .  A
C502        O507   1.267       .  A
C502        C584   1.476       .  S
O503        C509   1.273       .  A
O503       Cd506   2.540       .  S
C504        O512   1.269       .  A
C504        C577   1.485       .  S
C505        O510   1.271       .  A
C505        O508   1.262       .  A
C505        C767   1.494       .  S
Cd506       O513   2.476       .  S
Cd506       O512   2.455       .  S
Cd506       O511   2.438       .  S
Cd506      O1299   2.458   1_455  S
Cd506       O510   2.541       .  S
Cd506       O508   2.460       .  S
O507      Cd1298   2.458       .  S
C509        O513   1.263       .  A
C509        C637   1.499       .  S
O511       C1294   1.264   1_455  A
O514        C517   1.268       .  A
C515        O524   1.269       .  A
C515        O520   1.267       .  A
C515        C574   1.480       .  S
O516        C522   1.271       .  A
O516       Cd519   2.530       .  S
C517        C687   1.479       .  S
C518        O523   1.272       .  A
C518        O521   1.264       .  A
C518        C624   1.495       .  S
Cd519       O526   2.448       .  S
Cd519       O525   2.435       .  S
Cd519       O524   2.474       .  S
Cd519       O520   2.455       .  S
Cd519       O523   2.528       .  S
Cd519       O521   2.461       .  S
C522        O526   1.264       .  A
C522        C567   1.492       .  S
O527        C530   1.266       .  A
O527       Cd532   2.457       .  S
C528        O537   1.266       .  A
C528        O533   1.268       .  A
C528        C617   1.480       .  S
O529        C535   1.272       .  A
O529       Cd532   2.528       .  S
C530        O538   1.266       .  A
C530        C554   1.471       .  S
C531        O536   1.271       .  A
C531        O534   1.262       .  A
C531        C564   1.488       .  S
Cd532       O539   2.480       .  S
Cd532       O538   2.455       .  S
Cd532       O537   2.446       .  S
Cd532       O533   2.464       .  S
Cd532       O536   2.519       .  S
Cd532       O534   2.466       .  S
C535        O539   1.264       .  A
C535        C667   1.497       .  S
O540        C543   1.268       .  A
O540       Cd545   2.472       .  S
C541        O550   1.266       .  A
C541        O546   1.268       .  A
C541        C557   1.481       .  S
O542        C548   1.271       .  A
O542       Cd545   2.521       .  S
C543        O551   1.265       .  A
C543       C1536   1.478       .  S
C544        O549   1.269       .  A
C544        O547   1.263       .  A
C544        C697   1.493       .  S
Cd545       O552   2.436       .  S
Cd545       O551   2.440       .  S
Cd545       O550   2.445       .  S
Cd545       O546   2.471       .  S
Cd545       O549   2.528       .  S
Cd545       O547   2.475       .  S
C548        O552   1.263       .  A
C548        C594   1.488       .  S
C553        C554   1.400       .  A
C553        C558   1.397       .  A
C553        H560   1.086       .  S
C554        C555   1.406       .  A
C555        C556   1.399       .  A
C555        F562   1.358       .  S
C556        C557   1.405       .  A
C556        H561   1.085       .  S
C557        C558   1.410       .  A
C558        F559   1.357       .  S
C563        C564   1.409       .  A
C563       C1360   1.407       .  A
C563        H570   1.084       .  S
C564        C565   1.405       .  A
C565        C566   1.401       .  A
C565        F572   1.357       .  S
C566       C1359   1.408       .  A
C566        H571   1.084       .  S
C567       C1358   1.408   1_455  A
C567        C568   1.409       .  A
C568       C1355   1.407   1_455  A
C568        F569   1.357       .  S
C573        C574   1.403       .  A
C573        C578   1.400       .  A
C573        H580   1.083       .  S
C574        C575   1.408       .  A
C575        C576   1.400       .  A
C575        F582   1.358       .  S
C576        C577   1.406       .  A
C576        H581   1.085       .  S
C577        C578   1.409       .  A
C578        F579   1.357       .  S
C583        C584   1.403       .  A
C583        C588   1.396       .  A
C583        H590   1.085       .  S
C584        C585   1.408   1_556  A
C585        C586   1.395       .  A
C585        F592   1.357       .  S
C586        C587   1.404       .  A
C586        H591   1.085       .  S
C587        C588   1.409   1_554  A
C588        F589   1.357       .  S
C593        C594   1.408       .  A
C593        C598   1.399       .  A
C593        H600   1.084       .  S
C594        C595   1.408       .  A
C595        C596   1.404       .  A
C595        F602   1.357       .  S
C596        C597   1.409       .  A
C596        H601   1.084       .  S
C597        C598   1.407       .  A
C598        F599   1.357       .  S
C603        C604   1.404       .  A
C603        C608   1.395       .  A
C603        H610   1.085       .  S
C604        C605   1.408       .  A
C605        C606   1.396       .  A
C605        F612   1.357       .  S
C606        C607   1.403       .  A
C606        H611   1.084       .  S
C607        C608   1.407       .  A
C608        F609   1.358       .  S
C613        C614   1.407       .  A
C613        C618   1.400       .  A
C613        H620   1.084       .  S
C614        C615   1.407       .  A
C615        C616   1.398       .  A
C615        F622   1.357       .  S
C616        C617   1.405       .  A
C616        H621   1.084       .  S
C617        C618   1.407       .  A
C618        F619   1.358       .  S
C623        C624   1.406       .  A
C623        C628   1.404       .  A
C623        H630   1.082       .  S
C625        C626   1.404       .  A
C625        F632   1.357       .  S
C626        C627   1.403       .  A
C626        H631   1.082       .  S
C628        F629   1.358       .  S
C633        C634   1.410       .  A
C633       C1430   1.406       .  A
C633        H640   1.082       .  S
C634        C635   1.407       .  A
C635        C636   1.407       .  A
C635        F642   1.358       .  S
C636       C1429   1.412       .  A
C636        H641   1.081       .  S
C637       C1428   1.412   1_455  A
C637        C638   1.407       .  A
C638       C1425   1.406       .  A
C638        F639   1.357       .  S
C643        C644   1.408       .  A
C643        H650   1.084       .  S
C644        C645   1.405   1_554  A
C645        F652   1.357       .  S
C646        C647   1.410       .  A
C646        H651   1.083       .  S
C647        C648   1.408   1_556  A
C648        F649   1.357       .  S
C653        C654   1.405       .  A
C653        C658   1.401       .  A
C653        H660   1.085       .  S
C654        C655   1.410       .  A
C655        C656   1.402       .  A
C655        F662   1.357       .  S
C656        C657   1.407       .  A
C656        H661   1.085       .  S
C657        C658   1.409       .  A
C658        F659   1.357       .  S
C663        C664   1.406       .  A
C663        C668   1.406       .  A
C663        H670   1.082       .  S
C664        C665   1.412       .  A
C665        C666   1.404       .  A
C665        F672   1.357       .  S
C666        C667   1.405       .  A
C666        H671   1.082       .  S
C667        C668   1.414       .  A
C668        F669   1.357       .  S
C673        C674   1.408   1_655  A
C673       C1470   1.399       .  A
C673        H680   1.083       .  S
C674        C675   1.408       .  A
C675       C1468   1.404   1_455  A
C675        F682   1.357       .  S
C676       C1467   1.404       .  A
C676        C677   1.408       .  A
C676        H681   1.083       .  S
C677        C678   1.406       .  A
C678       C1465   1.399       .  A
C678        F679   1.358       .  S
C683        C684   1.408       .  A
C683        C688   1.401       .  A
C683        H690   1.083       .  S
C684        C685   1.407       .  A
C685        C686   1.396       .  A
C685        F692   1.357       .  S
C686        C687   1.405       .  A
C686        H691   1.083       .  S
C687        C688   1.407       .  A
C688        F689   1.358       .  S
C693       C1486   1.409       .  A
C693        C698   1.405       .  A
C693        H700   1.084       .  S
C694       C1485   1.409   1_455  A
C694        C695   1.407       .  A
C695        C696   1.403       .  A
C695        F702   1.357       .  S
C696       C1489   1.409   1_455  A
C696        H701   1.084       .  S
C697       C1488   1.409       .  A
C697        C698   1.408       .  A
C698        F699   1.357       .  S
C703        C704   1.406       .  A
C703        C708   1.401       .  A
C703        H710   1.085       .  S
C704        C705   1.410       .  A
C705        C706   1.398       .  A
C705        F712   1.357       .  S
C706        C707   1.403       .  A
C706        H711   1.085       .  S
C707        C708   1.409       .  A
C708        F709   1.358       .  S
C713        C714   1.408       .  A
C713        C718   1.399       .  A
C713        H720   1.083       .  S
C714        C715   1.406       .  A
C715        C716   1.392       .  A
C715        F722   1.357       .  S
C716        C717   1.404       .  A
C716        H721   1.083       .  S
C717        C718   1.405       .  A
C718        F719   1.358       .  S
C723        C728   1.399       .  A
C723        H730   1.084       .  S
C724        C725   1.406       .  A
C725        C726   1.401       .  A
C725        F732   1.357       .  S
C726        H731   1.084       .  S
C727        C728   1.405       .  A
C728        F729   1.357       .  S
C733        C734   1.408       .  A
C733        C738   1.399       .  A
C733        H740   1.083       .  S
C734        C735   1.406       .  A
C735        C736   1.402       .  A
C735        F742   1.357       .  S
C736        C737   1.408       .  A
C736        H741   1.083       .  S
C737        C738   1.405       .  A
C738        F739   1.358       .  S
C743        C744   1.403       .  A
C743        C748   1.397       .  A
C743        H750   1.084       .  S
C744       C1335   1.478       .  S
C744        C745   1.409       .  A
C745        C746   1.395       .  A
C745       F1544   1.357   1_455  S
C746        C747   1.403       .  A
C746        H751   1.085       .  S
C747        C748   1.410       .  A
C748        F749   1.358       .  S
F752       C1537   1.357       .  S
C753        C754   1.409       .  A
C753        C758   1.405       .  A
C753        H760   1.084       .  S
C754        C755   1.407       .  A
C755        C756   1.402       .  A
C755        F762   1.357       .  S
C756        C757   1.409       .  A
C756        H761   1.084       .  S
C757        C758   1.408       .  A
C758        F759   1.357       .  S
C763        C764   1.407       .  A
C763        H770   1.083       .  S
C764        C765   1.405   1_554  A
C765        F772   1.358       .  S
C766        C767   1.410       .  A
C766        H771   1.083       .  S
C767        C768   1.409   1_556  A
C768        F769   1.357       .  S
C773        C774   1.407       .  A
C773        C778   1.399       .  A
C773        H780   1.083       .  S
C774        C775   1.409       .  A
C775        C776   1.398       .  A
C775        F782   1.357       .  S
C776        C777   1.404       .  A
C776        H781   1.083       .  S
C777        C778   1.406       .  A
C778        F779   1.358       .  S
C783        C784   1.408   1_556  A
C783        C788   1.401       .  A
C783        H790   1.083       .  S
C784        C785   1.406       .  A
C785        C786   1.397       .  A
C785        F792   1.357       .  S
C786        C787   1.407   1_554  A
C786        H791   1.083       .  S
C787       C1242   1.485   1_455  S
C787        C788   1.408       .  A
C788        F789   1.357       .  S
O793        C796   1.267       .  A
O793       Cd798   2.466       .  S
C794        O803   1.265       .  A
C794        O799   1.269       .  A
C794       C1180   1.483       .  S
O795        C801   1.270       .  A
O795       Cd798   2.509       .  S
C796        O804   1.267       .  A
C796       C1170   1.482       .  S
C797        O802   1.270       .  A
C797        O800   1.263       .  A
C797       C1160   1.485       .  S
Cd798       O805   2.480       .  S
Cd798       O804   2.461       .  S
Cd798       O803   2.450       .  S
Cd798       O799   2.470       .  S
Cd798       O802   2.514       .  S
Cd798       O800   2.460       .  S
C801        O805   1.264       .  A
C801       C1150   1.491       .  S
O806        C809   1.268       .  A
O806      Cd1207   2.453       .  S
C807        O816   1.268       .  A
C807        O812   1.268       .  A
C807       C1173   1.476       .  S
O808        C814   1.269       .  A
O808       Cd811   2.504       .  S
C809       O1213   1.265       .  A
C809       C1143   1.478       .  S
C810        O815   1.271       .  A
C810        O813   1.263       .  A
C810       C1120   1.484       .  S
Cd811      O1202   2.453       .  S
Cd811       O818   2.440       .  S
Cd811       O817   2.439       .  S
Cd811       O816   2.447       .  S
Cd811       O812   2.448       .  S
Cd811       O815   2.506       .  S
Cd811       O813   2.433       .  S
C814        O818   1.261       .  A
C814       C1133   1.482       .  S
O817       C1205   1.265   1_545  A
O819        C822   1.268       .  A
C820        O829   1.268       .  A
C820        O825   1.268       .  A
C820       C1103   1.481       .  S
O821        C827   1.271       .  A
O821       Cd824   2.524       .  S
C822       C1110   1.479       .  S
C823        O828   1.271       .  A
C823        O826   1.265       .  A
C823       C1090   1.492       .  S
Cd824       O831   2.430       .  S
Cd824       O830   2.450       .  S
Cd824       O829   2.455       .  S
Cd824       O825   2.469       .  S
Cd824       O828   2.508       .  S
Cd824       O826   2.471       .  S
C827        O831   1.262       .  A
C827       C1130   1.486       .  S
O832        C835   1.268       .  A
O832       Cd837   2.460       .  S
C833        O842   1.267       .  A
C833        O838   1.269       .  A
C833       C1100   1.486       .  S
O834        C840   1.262       .  A
O834       Cd837   2.439       .  S
C835        O843   1.266       .  A
C835       C1080   1.483       .  S
C836        O841   1.271       .  A
C836        O839   1.265       .  A
C836       C1060   1.496       .  S
Cd837       O844   2.529       .  S
Cd837       O843   2.469       .  S
Cd837       O842   2.451       .  S
Cd837       O838   2.484       .  S
Cd837       O841   2.527       .  S
Cd837       O839   2.465       .  S
C840        O844   1.270       .  A
C840       C1070   1.489       .  S
O845        C848   1.269       .  A
O845       Cd850   2.480       .  S
C846        O855   1.264       .  A
C846        O851   1.270       .  A
O847        C853   1.263       .  A
O847       Cd850   2.471       .  S
C848        O856   1.268       .  A
C848       C1053   1.489       .  S
C849        O854   1.263       .  A
C849        O852   1.269       .  A
C849       C1043   1.491       .  S
Cd850       O857   2.543       .  S
Cd850       O856   2.471       .  S
Cd850       O855   2.430       .  S
Cd850       O851   2.503       .  S
Cd850       O854   2.474       .  S
Cd850       O852   2.523       .  S
C853        O857   1.271       .  A
C853       C1030   1.496       .  S
O858        C861   1.269       .  A
O858      Cd1259   2.478       .  S
C859        O868   1.267       .  A
C859        O864   1.269       .  A
C859       C1050   1.487       .  S
O860        C866   1.268       .  A
O860       Cd863   2.500       .  S
C861       O1265   1.265       .  A
C861       C1010   1.484       .  S
C862        O867   1.270       .  A
C862        O865   1.262       .  A
C862       C1023   1.487       .  S
Cd863      O1254   2.478       .  S
Cd863       O870   2.465       .  S
Cd863       O869   2.459       .  S
Cd863       O868   2.474       .  S
Cd863       O864   2.480       .  S
Cd863       O867   2.526       .  S
Cd863       O865   2.452       .  S
C866        O870   1.261       .  A
C866       C1073   1.484       .  S
O869       C1257   1.265   1_545  A
O871        C874   1.268       .  A
O871      Cd1272   2.467   1_545  S
C872        O881   1.268       .  A
C872        O877   1.267       .  A
C872       C1003   1.474       .  S
O873        C879   1.270       .  A
O873       Cd876   2.500       .  S
C874       O1278   1.263   1_545  A
C874       C1113   1.473       .  S
C875        O880   1.273       .  A
C875        O878   1.263       .  A
C875       C1123   1.485       .  S
Cd876      O1267   2.467       .  S
Cd876       O883   2.454       .  S
Cd876       O882   2.400       .  S
Cd876       O881   2.446       .  S
Cd876       O877   2.434       .  S
Cd876       O880   2.505       .  S
Cd876       O878   2.433       .  S
C879        O883   1.263       .  A
C879        C993   1.487       .  S
O882       C1270   1.263       .  A
O884        C887   1.268       .  A
O884       Cd889   2.439       .  S
C885        O894   1.266       .  A
C885        O890   1.268       .  A
C885        C983   1.476       .  S
O886        C892   1.272       .  A
O886       Cd889   2.513       .  S
C887        O895   1.267       .  A
C887       C1000   1.476       .  S
C888        O893   1.273       .  A
C888        O891   1.263       .  A
C888       C1040   1.487       .  S
Cd889       O896   2.460       .  S
Cd889       O895   2.439       .  S
Cd889       O894   2.432       .  S
Cd889       O890   2.446       .  S
Cd889       O893   2.526       .  S
Cd889       O891   2.434       .  S
C892        O896   1.264       .  A
C892       C1153   1.492       .  S
O897        C900   1.269       .  A
O897       Cd902   2.463       .  S
C898        O903   1.267       .  A
C898        C980   1.476       .  S
O899        C905   1.273       .  A
O899       Cd902   2.540       .  S
C900        O908   1.269       .  A
C900        C973   1.485       .  S
C901        O906   1.271       .  A
C901        O904   1.262       .  A
C901       C1163   1.494       .  S
Cd902       O909   2.476       .  S
Cd902       O908   2.455       .  S
Cd902       O907   2.438       .  S
Cd902       O906   2.541       .  S
Cd902       O904   2.460       .  S
C905        O909   1.263       .  A
C905       C1033   1.499       .  S
O910        C913   1.268   1_565  A
O910      Cd1311   2.476       .  S
C911        O920   1.269       .  A
C911        O916   1.267       .  A
C911        C970   1.480       .  S
O912        C918   1.271       .  A
O912       Cd915   2.530       .  S
C913       O1317   1.265   1_545  A
C913       C1083   1.479       .  S
C914        O919   1.272       .  A
C914        O917   1.264       .  A
C914       C1020   1.495       .  S
Cd915      O1306   2.477       .  S
Cd915       O922   2.448       .  S
Cd915       O921   2.435       .  S
Cd915       O920   2.474       .  S
Cd915       O916   2.455       .  S
Cd915       O919   2.528       .  S
Cd915       O917   2.461       .  S
C918        O922   1.264       .  A
C918        C963   1.492       .  S
O921       C1309   1.265       .  A
O923        C926   1.266       .  A
O923       Cd928   2.457       .  S
C924        O933   1.266       .  A
C924        O929   1.268       .  A
C924       C1013   1.480       .  S
O925        C931   1.272       .  A
O925       Cd928   2.528       .  S
C926        O934   1.266       .  A
C926        C950   1.471       .  S
C927        O932   1.271       .  A
C927        O930   1.262       .  A
C927        C960   1.488       .  S
Cd928       O935   2.480       .  S
Cd928       O934   2.455       .  S
Cd928       O933   2.446       .  S
Cd928       O929   2.464       .  S
Cd928       O932   2.519       .  S
Cd928       O930   2.466       .  S
C931        O935   1.264       .  A
C931       C1063   1.497       .  S
O936        C939   1.268   1_655  A
O936       Cd941   2.472       .  S
C937        O946   1.266       .  A
C937        O942   1.268       .  A
C937        C953   1.481       .  S
O938        C944   1.271       .  A
O938       Cd941   2.521       .  S
C939        O947   1.265   1_455  A
C940        O945   1.269       .  A
C940        O943   1.263       .  A
C940       C1093   1.493       .  S
Cd941       O948   2.436       .  S
Cd941       O947   2.440       .  S
Cd941       O946   2.445       .  S
Cd941       O942   2.471       .  S
Cd941       O945   2.528       .  S
Cd941       O943   2.475       .  S
C944        O948   1.263       .  A
C944        C990   1.488       .  S
C949        C950   1.400       .  A
C949        C954   1.397       .  A
C949        H956   1.086       .  S
C950        C951   1.406       .  A
C951        C952   1.399       .  A
C951        F958   1.358       .  S
C952        C953   1.405       .  A
C952        H957   1.085       .  S
C953        C954   1.410       .  A
C954        F955   1.357       .  S
C959        C960   1.409       .  A
C959        H966   1.084       .  S
C960        C961   1.405       .  A
C961        C962   1.401       .  A
C961        F968   1.357       .  S
C962        H967   1.084       .  S
C963        C964   1.409       .  A
C964        F965   1.357       .  S
C969        C970   1.403       .  A
C969        C974   1.400       .  A
C969        H976   1.083       .  S
C970        C971   1.408       .  A
C971        C972   1.400       .  A
C971        F978   1.358       .  S
C972        C973   1.406       .  A
C972        H977   1.085       .  S
C973        C974   1.409       .  A
C974        F975   1.357       .  S
C979        C980   1.403       .  A
C979        C984   1.396       .  A
C979        H986   1.085       .  S
C980        C981   1.408   1_556  A
C981        C982   1.395       .  A
C981        F988   1.357       .  S
C982        C983   1.404       .  A
C982        H987   1.085       .  S
C983        C984   1.409   1_554  A
C984        F985   1.357       .  S
C989        C990   1.408       .  A
C989        C994   1.399       .  A
C989        H996   1.084       .  S
C990        C991   1.408       .  A
C991        C992   1.404       .  A
C991        F998   1.357       .  S
C992        C993   1.409       .  A
C992        H997   1.084       .  S
C993        C994   1.407       .  A
C994        F995   1.357       .  S
C999       C1000   1.404       .  A
C999       C1004   1.395       .  A
C999       H1006   1.085       .  S
C1000      C1001   1.408       .  A
C1001      C1002   1.396       .  A
C1001      F1008   1.357       .  S
C1002      C1003   1.403       .  A
C1002      H1007   1.084       .  S
C1003      C1004   1.407       .  A
C1004      F1005   1.358       .  S
C1009      C1010   1.407       .  A
C1009      C1014   1.400       .  A
C1009      H1016   1.084       .  S
C1010      C1011   1.407       .  A
C1011      C1012   1.398       .  A
C1011      F1018   1.357       .  S
C1012      C1013   1.405       .  A
C1012      H1017   1.084       .  S
C1013      C1014   1.407       .  A
C1014      F1015   1.358       .  S
C1019      C1020   1.406       .  A
C1019      C1024   1.404       .  A
C1019      H1026   1.082       .  S
C1020      C1417   1.414       .  A
C1021      C1416   1.414   1_545  A
C1021      C1022   1.404       .  A
C1021      F1028   1.357       .  S
C1022      C1023   1.403       .  A
C1022      H1027   1.082       .  S
C1023      C1420   1.410   1_545  A
C1024      C1419   1.410       .  A
C1024      F1025   1.358       .  S
C1029      C1030   1.410   1_455  A
C1029      H1036   1.082       .  S
C1030      C1031   1.407       .  A
C1031      C1032   1.407       .  A
C1031      F1038   1.358       .  S
C1032      H1037   1.081       .  S
C1033      C1034   1.407       .  A
C1034      F1035   1.357       .  S
C1039      C1040   1.408       .  A
C1039      C1440   1.402       .  A
C1039      H1046   1.084       .  S
C1040      C1041   1.405   1_554  A
C1041      C1438   1.405       .  A
C1041      F1048   1.357       .  S
C1042      C1437   1.405       .  A
C1042      C1043   1.410   1_565  A
C1042      H1047   1.083       .  S
C1043      C1044   1.408   1_556  A
C1044      C1435   1.402   1_545  A
C1044      F1045   1.357       .  S
C1049      C1050   1.405       .  A
C1049      C1054   1.401       .  A
C1049      H1056   1.085       .  S
C1050      C1051   1.410       .  A
C1051      C1052   1.402       .  A
C1051      F1058   1.357       .  S
C1052      C1053   1.407       .  A
C1052      H1057   1.085       .  S
C1053      C1054   1.409       .  A
C1054      F1055   1.357       .  S
C1059      C1060   1.406       .  A
C1059      C1064   1.406       .  A
C1059      H1066   1.082       .  S
C1060      C1061   1.412       .  A
C1061      C1062   1.404       .  A
C1061      F1068   1.357       .  S
C1062      C1063   1.405       .  A
C1062      H1067   1.082       .  S
C1063      C1064   1.414       .  A
C1064      F1065   1.357       .  S
C1069      C1070   1.408       .  A
C1069      H1076   1.083       .  S
C1070      C1071   1.408       .  A
C1071      F1078   1.357       .  S
C1072      C1073   1.408       .  A
C1072      H1077   1.083       .  S
C1073      C1074   1.406       .  A
C1074      F1075   1.358       .  S
C1079      C1080   1.408       .  A
C1079      C1084   1.401       .  A
C1079      H1086   1.083       .  S
C1080      C1081   1.407       .  A
C1081      C1082   1.396       .  A
C1081      F1088   1.357       .  S
C1082      C1083   1.405       .  A
C1082      H1087   1.083       .  S
C1083      C1084   1.407       .  A
C1084      F1085   1.358       .  S
C1089      C1094   1.405       .  A
C1089      H1096   1.084       .  S
C1090      C1091   1.407       .  A
C1091      C1092   1.403       .  A
C1091      F1098   1.357       .  S
C1092      H1097   1.084       .  S
C1093      C1094   1.408       .  A
C1094      F1095   1.357       .  S
C1099      C1100   1.406       .  A
C1099      C1104   1.401       .  A
C1099      H1106   1.085       .  S
C1100      C1101   1.410       .  A
C1101      C1102   1.398       .  A
C1101      F1108   1.357       .  S
C1102      C1103   1.403       .  A
C1102      H1107   1.085       .  S
C1103      C1104   1.409       .  A
C1104      F1105   1.358       .  S
C1109      C1110   1.408       .  A
C1109      C1114   1.399       .  A
C1109      H1116   1.083       .  S
C1110      C1111   1.406       .  A
C1111      C1112   1.392       .  A
C1111      F1118   1.357       .  S
C1112      C1113   1.404       .  A
C1112      H1117   1.083       .  S
C1113      C1114   1.405       .  A
C1114      F1115   1.358       .  S
C1119      C1516   1.408       .  A
C1119      C1124   1.399       .  A
C1119      H1126   1.084       .  S
C1120      C1515   1.408   1_545  A
C1120      C1121   1.406       .  A
C1121      C1122   1.401       .  A
C1121      F1128   1.357       .  S
C1122      C1519   1.409   1_545  A
C1122      H1127   1.084       .  S
C1123      C1518   1.409       .  A
C1123      C1124   1.405       .  A
C1124      F1125   1.357       .  S
C1129      C1130   1.408       .  A
C1129      C1134   1.399       .  A
C1129      H1136   1.083       .  S
C1130      C1131   1.406       .  A
C1131      C1132   1.402       .  A
C1131      F1138   1.357       .  S
C1132      C1133   1.408       .  A
C1132      H1137   1.083       .  S
C1133      C1134   1.405       .  A
C1134      F1135   1.358       .  S
C1139      C1140   1.403       .  A
C1139      C1144   1.397       .  A
C1139      H1146   1.084       .  S
C1140      C1141   1.409       .  A
C1141      C1142   1.395       .  A
C1142      C1143   1.403       .  A
C1142      H1147   1.085       .  S
C1143      C1144   1.410       .  A
C1144      F1145   1.358       .  S
C1149      C1150   1.409       .  A
C1149      C1154   1.405       .  A
C1149      H1156   1.084       .  S
C1150      C1151   1.407       .  A
C1151      C1152   1.402       .  A
C1151      F1158   1.357       .  S
C1152      C1153   1.409       .  A
C1152      H1157   1.084       .  S
C1153      C1154   1.408       .  A
C1154      F1155   1.357       .  S
C1159      C1160   1.407   1_565  A
C1159      C1560   1.405       .  A
C1159      H1166   1.083       .  S
C1160      C1161   1.405   1_554  A
C1161      C1558   1.402   1_545  A
C1161      F1168   1.358       .  S
C1162      C1557   1.402       .  A
C1162      C1163   1.410       .  A
C1162      H1167   1.083       .  S
C1163      C1164   1.409   1_556  A
C1164      C1555   1.405       .  A
C1164      F1165   1.357       .  S
C1169      C1170   1.407       .  A
C1169      C1174   1.399       .  A
C1169      H1176   1.083       .  S
C1170      C1171   1.409       .  A
C1171      C1172   1.398       .  A
C1171      F1178   1.357       .  S
C1172      C1173   1.404       .  A
C1172      H1177   1.083       .  S
C1173      C1174   1.406       .  A
C1174      F1175   1.358       .  S
C1179      C1180   1.408   1_556  A
C1179      C1184   1.401       .  A
C1179      H1186   1.083       .  S
C1180      C1181   1.406       .  A
C1181      C1182   1.397       .  A
C1181      F1188   1.357       .  S
C1182      C1183   1.407   1_554  A
C1182      H1187   1.083       .  S
C1183      C1184   1.408       .  A
C1184      F1185   1.357       .  S
O1189      C1192   1.267       .  A
O1189     Cd1194   2.466       .  S
C1190      O1199   1.265       .  A
C1190      O1195   1.269       .  A
C1190      C1576   1.483       .  S
O1191      C1197   1.270       .  A
O1191     Cd1194   2.509       .  S
C1192      O1200   1.267       .  A
C1192      C1566   1.482       .  S
C1193      O1198   1.270       .  A
C1193      O1196   1.263       .  A
C1193      C1556   1.485       .  S
Cd1194     O1201   2.480       .  S
Cd1194     O1200   2.461       .  S
Cd1194     O1199   2.450       .  S
Cd1194     O1195   2.470       .  S
Cd1194     O1198   2.514       .  S
Cd1194     O1196   2.460       .  S
C1197      O1201   1.264       .  A
C1197      C1546   1.491       .  S
O1202      C1205   1.268   1_545  A
C1203      O1212   1.268       .  A
C1203      O1208   1.268       .  A
C1203      C1569   1.476       .  S
O1204      C1210   1.269       .  A
O1204     Cd1207   2.504       .  S
C1205      C1539   1.478       .  S
C1206      O1211   1.271       .  A
C1206      O1209   1.263       .  A
C1206      C1516   1.484       .  S
Cd1207     O1214   2.440       .  S
Cd1207     O1213   2.439       .  S
Cd1207     O1212   2.447       .  S
Cd1207     O1208   2.448       .  S
Cd1207     O1211   2.506       .  S
Cd1207     O1209   2.433       .  S
C1210      O1214   1.261       .  A
C1210      C1529   1.482       .  S
O1215      C1218   1.268       .  A
C1216      O1225   1.268       .  A
C1216      O1221   1.268       .  A
C1216      C1499   1.481       .  S
O1217      C1223   1.271       .  A
O1217     Cd1220   2.524       .  S
C1218      C1506   1.479       .  S
C1219      O1224   1.271       .  A
C1219      O1222   1.265       .  A
C1219      C1486   1.492       .  S
Cd1220     O1227   2.431       .  S
Cd1220     O1226   2.450       .  S
Cd1220     O1225   2.455       .  S
Cd1220     O1221   2.469       .  S
Cd1220     O1224   2.508       .  S
Cd1220     O1222   2.471       .  S
C1223      O1227   1.262       .  A
C1223      C1526   1.486       .  S
O1228      C1231   1.268       .  A
O1228     Cd1233   2.460       .  S
C1229      O1238   1.267       .  A
C1229      O1234   1.269       .  A
C1229      C1496   1.486       .  S
O1230      C1236   1.262       .  A
O1230     Cd1233   2.439       .  S
C1231      O1239   1.266       .  A
C1231      C1476   1.483       .  S
C1232      O1237   1.271       .  A
C1232      O1235   1.265       .  A
C1232      C1456   1.496       .  S
Cd1233     O1240   2.529       .  S
Cd1233     O1239   2.469       .  S
Cd1233     O1238   2.451       .  S
Cd1233     O1234   2.484       .  S
Cd1233     O1237   2.527       .  S
Cd1233     O1235   2.465       .  S
C1236      O1240   1.270       .  A
C1236      C1466   1.489       .  S
O1241      C1244   1.269       .  A
O1241     Cd1246   2.480       .  S
C1242      O1251   1.264       .  A
C1242      O1247   1.270       .  A
O1243      C1249   1.263       .  A
O1243     Cd1246   2.471       .  S
C1244      O1252   1.268       .  A
C1244      C1449   1.489       .  S
C1245      O1250   1.263       .  A
C1245      O1248   1.269       .  A
C1245      C1439   1.491       .  S
Cd1246     O1253   2.543       .  S
Cd1246     O1252   2.471       .  S
Cd1246     O1251   2.430       .  S
Cd1246     O1247   2.504       .  S
Cd1246     O1250   2.474       .  S
Cd1246     O1248   2.523       .  S
C1249      O1253   1.271       .  A
C1249      C1426   1.496       .  S
O1254      C1257   1.269   1_545  A
C1255      O1264   1.267       .  A
C1255      O1260   1.269       .  A
C1255      C1446   1.487       .  S
O1256      C1262   1.268       .  A
O1256     Cd1259   2.500       .  S
C1257      C1406   1.484       .  S
C1258      O1263   1.270       .  A
C1258      O1261   1.262       .  A
C1258      C1419   1.487       .  S
Cd1259     O1266   2.465       .  S
Cd1259     O1265   2.459       .  S
Cd1259     O1264   2.474       .  S
Cd1259     O1260   2.480       .  S
Cd1259     O1263   2.526       .  S
Cd1259     O1261   2.452       .  S
C1262      O1266   1.261       .  A
C1262      C1469   1.484       .  S
O1267      C1270   1.268       .  A
C1268      O1277   1.268       .  A
C1268      O1273   1.267       .  A
C1268      C1399   1.474       .  S
O1269      C1275   1.270       .  A
O1269     Cd1272   2.500       .  S
C1270      C1509   1.473       .  S
C1271      O1276   1.272       .  A
C1271      O1274   1.263       .  A
C1271      C1519   1.485       .  S
Cd1272     O1279   2.454       .  S
Cd1272     O1278   2.400       .  S
Cd1272     O1277   2.446       .  S
Cd1272     O1273   2.434       .  S
Cd1272     O1276   2.505       .  S
Cd1272     O1274   2.433       .  S
C1275      O1279   1.263       .  A
C1275      C1389   1.487       .  S
O1280      C1283   1.268       .  A
O1280     Cd1285   2.438       .  S
C1281      O1290   1.266       .  A
C1281      O1286   1.268       .  A
C1281      C1379   1.476       .  S
O1282      C1288   1.272       .  A
O1282     Cd1285   2.513       .  S
C1283      O1291   1.267       .  A
C1283      C1396   1.476       .  S
C1284      O1289   1.273       .  A
C1284      O1287   1.263       .  A
C1284      C1436   1.487       .  S
Cd1285     O1292   2.460       .  S
Cd1285     O1291   2.439       .  S
Cd1285     O1290   2.432       .  S
Cd1285     O1286   2.446       .  S
Cd1285     O1289   2.526       .  S
Cd1285     O1287   2.434       .  S
C1288      O1292   1.264       .  A
C1288      C1549   1.492       .  S
O1293      C1296   1.269       .  A
O1293     Cd1298   2.463       .  S
C1294      O1299   1.267       .  A
C1294      C1376   1.476       .  S
O1295      C1301   1.273       .  A
O1295     Cd1298   2.540       .  S
C1296      O1304   1.269       .  A
C1296      C1369   1.485       .  S
C1297      O1302   1.271       .  A
C1297      O1300   1.262       .  A
C1297      C1559   1.494       .  S
Cd1298     O1305   2.476       .  S
Cd1298     O1304   2.455       .  S
Cd1298     O1303   2.438       .  S
Cd1298     O1302   2.541       .  S
Cd1298     O1300   2.460       .  S
C1301      O1305   1.263       .  A
C1301      C1429   1.499       .  S
O1306      C1309   1.268       .  A
C1307      O1316   1.269       .  A
C1307      O1312   1.267       .  A
C1307      C1366   1.480       .  S
O1308      C1314   1.271       .  A
O1308     Cd1311   2.530       .  S
C1309      C1479   1.479       .  S
C1310      O1315   1.272       .  A
C1310      O1313   1.264       .  A
C1310      C1416   1.495       .  S
Cd1311     O1318   2.448       .  S
Cd1311     O1317   2.435       .  S
Cd1311     O1316   2.473       .  S
Cd1311     O1312   2.454       .  S
Cd1311     O1315   2.528       .  S
Cd1311     O1313   2.461       .  S
C1314      O1318   1.264       .  A
C1314      C1359   1.492       .  S
O1319      C1322   1.266       .  A
O1319     Cd1324   2.457       .  S
C1320      O1329   1.266       .  A
C1320      O1325   1.268       .  A
C1320      C1409   1.480       .  S
O1321      C1327   1.272       .  A
O1321     Cd1324   2.528       .  S
C1322      O1330   1.266       .  A
C1322      C1346   1.471       .  S
C1323      O1328   1.271       .  A
C1323      O1326   1.262       .  A
C1323      C1356   1.488       .  S
Cd1324     O1331   2.480       .  S
Cd1324     O1330   2.455       .  S
Cd1324     O1329   2.446       .  S
Cd1324     O1325   2.464       .  S
Cd1324     O1328   2.519       .  S
Cd1324     O1326   2.466       .  S
C1327      O1331   1.264       .  A
C1327      C1459   1.497       .  S
O1332      C1335   1.268   1_655  A
O1332     Cd1337   2.472       .  S
C1333      O1342   1.266       .  A
C1333      O1338   1.268       .  A
C1333      C1349   1.481       .  S
O1334      C1340   1.271       .  A
O1334     Cd1337   2.521       .  S
C1335      O1343   1.265   1_455  A
C1336      O1341   1.269       .  A
C1336      O1339   1.263       .  A
C1336      C1489   1.493       .  S
Cd1337     O1344   2.436       .  S
Cd1337     O1343   2.440       .  S
Cd1337     O1342   2.445       .  S
Cd1337     O1338   2.471       .  S
Cd1337     O1341   2.528       .  S
Cd1337     O1339   2.475       .  S
C1340      O1344   1.263       .  A
C1340      C1386   1.488       .  S
C1345      C1346   1.400       .  A
C1345      C1350   1.397       .  A
C1345      H1352   1.086       .  S
C1346      C1347   1.406       .  A
C1347      C1348   1.399       .  A
C1347      F1354   1.358       .  S
C1348      C1349   1.405       .  A
C1348      H1353   1.085       .  S
C1349      C1350   1.410       .  A
C1350      F1351   1.357       .  S
C1355      C1356   1.409       .  A
C1355      H1362   1.084       .  S
C1356      C1357   1.405       .  A
C1357      C1358   1.401       .  A
C1357      F1364   1.357       .  S
C1358      H1363   1.084       .  S
C1359      C1360   1.409       .  A
C1360      F1361   1.357       .  S
C1365      C1366   1.403       .  A
C1365      C1370   1.400       .  A
C1365      H1372   1.083       .  S
C1366      C1367   1.408       .  A
C1367      C1368   1.400       .  A
C1367      F1374   1.358       .  S
C1368      C1369   1.406       .  A
C1368      H1373   1.085       .  S
C1369      C1370   1.409       .  A
C1370      F1371   1.357       .  S
C1375      C1376   1.403       .  A
C1375      C1380   1.396       .  A
C1375      H1382   1.085       .  S
C1376      C1377   1.408   1_556  A
C1377      C1378   1.395       .  A
C1377      F1384   1.357       .  S
C1378      C1379   1.404       .  A
C1378      H1383   1.085       .  S
C1379      C1380   1.409   1_554  A
C1380      F1381   1.357       .  S
C1385      C1386   1.408       .  A
C1385      C1390   1.399       .  A
C1385      H1392   1.084       .  S
C1386      C1387   1.408       .  A
C1387      C1388   1.404       .  A
C1387      F1394   1.357       .  S
C1388      C1389   1.409       .  A
C1388      H1393   1.084       .  S
C1389      C1390   1.407       .  A
C1390      F1391   1.357       .  S
C1395      C1396   1.404       .  A
C1395      C1400   1.395       .  A
C1395      H1402   1.085       .  S
C1396      C1397   1.408       .  A
C1397      C1398   1.396       .  A
C1397      F1404   1.357       .  S
C1398      C1399   1.403       .  A
C1398      H1403   1.084       .  S
C1399      C1400   1.407       .  A
C1400      F1401   1.358       .  S
C1405      C1406   1.407       .  A
C1405      C1410   1.400       .  A
C1405      H1412   1.084       .  S
C1406      C1407   1.407       .  A
C1407      C1408   1.398       .  A
C1407      F1414   1.357       .  S
C1408      C1409   1.405       .  A
C1408      H1413   1.084       .  S
C1409      C1410   1.407       .  A
C1410      F1411   1.358       .  S
C1415      C1416   1.406       .  A
C1415      C1420   1.404       .  A
C1415      H1422   1.082       .  S
C1417      C1418   1.404       .  A
C1417      F1424   1.357       .  S
C1418      C1419   1.403       .  A
C1418      H1423   1.082       .  S
C1420      F1421   1.358       .  S
C1425      C1426   1.410   1_455  A
C1425      H1432   1.082       .  S
C1426      C1427   1.407       .  A
C1427      C1428   1.407       .  A
C1427      F1434   1.358       .  S
C1428      H1433   1.081       .  S
C1429      C1430   1.407       .  A
C1430      F1431   1.357       .  S
C1435      C1436   1.408       .  A
C1435      H1442   1.084       .  S
C1436      C1437   1.405   1_554  A
C1437      F1444   1.357       .  S
C1438      C1439   1.410       .  A
C1438      H1443   1.083       .  S
C1439      C1440   1.408   1_556  A
C1440      F1441   1.357       .  S
C1445      C1446   1.405       .  A
C1445      C1450   1.401       .  A
C1445      H1452   1.085       .  S
C1446      C1447   1.410       .  A
C1447      C1448   1.402       .  A
C1447      F1454   1.357       .  S
C1448      C1449   1.407       .  A
C1448      H1453   1.085       .  S
C1449      C1450   1.409       .  A
C1450      F1451   1.357       .  S
C1455      C1456   1.406       .  A
C1455      C1460   1.406       .  A
C1455      H1462   1.082       .  S
C1456      C1457   1.412       .  A
C1457      C1458   1.404       .  A
C1457      F1464   1.357       .  S
C1458      C1459   1.405       .  A
C1458      H1463   1.082       .  S
C1459      C1460   1.414       .  A
C1460      F1461   1.357       .  S
C1465      C1466   1.408       .  A
C1465      H1472   1.083       .  S
C1466      C1467   1.408       .  A
C1467      F1474   1.357       .  S
C1468      C1469   1.408       .  A
C1468      H1473   1.083       .  S
C1469      C1470   1.406       .  A
C1470      F1471   1.358       .  S
C1475      C1476   1.408       .  A
C1475      C1480   1.401       .  A
C1475      H1482   1.083       .  S
C1476      C1477   1.407       .  A
C1477      C1478   1.396       .  A
C1477      F1484   1.357       .  S
C1478      C1479   1.405       .  A
C1478      H1483   1.083       .  S
C1479      C1480   1.407       .  A
C1480      F1481   1.358       .  S
C1485      C1490   1.405       .  A
C1485      H1492   1.084       .  S
C1486      C1487   1.407       .  A
C1487      C1488   1.403       .  A
C1487      F1494   1.357       .  S
C1488      H1493   1.084       .  S
C1489      C1490   1.408       .  A
C1490      F1491   1.357       .  S
C1495      C1496   1.406       .  A
C1495      C1500   1.401       .  A
C1495      H1502   1.085       .  S
C1496      C1497   1.410       .  A
C1497      C1498   1.398       .  A
C1497      F1504   1.357       .  S
C1498      C1499   1.403       .  A
C1498      H1503   1.085       .  S
C1499      C1500   1.409       .  A
C1500      F1501   1.358       .  S
C1505      C1506   1.408       .  A
C1505      C1510   1.399       .  A
C1505      H1512   1.083       .  S
C1506      C1507   1.406       .  A
C1507      C1508   1.392       .  A
C1507      F1514   1.357       .  S
C1508      C1509   1.404       .  A
C1508      H1513   1.083       .  S
C1509      C1510   1.405       .  A
C1510      F1511   1.358       .  S
C1515      C1520   1.399       .  A
C1515      H1522   1.084       .  S
C1516      C1517   1.406       .  A
C1517      C1518   1.401       .  A
C1517      F1524   1.357       .  S
C1518      H1523   1.084       .  S
C1519      C1520   1.405       .  A
C1520      F1521   1.357       .  S
C1525      C1526   1.408       .  A
C1525      C1530   1.399       .  A
C1525      H1532   1.083       .  S
C1526      C1527   1.406       .  A
C1527      C1528   1.402       .  A
C1527      F1534   1.357       .  S
C1528      C1529   1.408       .  A
C1528      H1533   1.083       .  S
C1529      C1530   1.405       .  A
C1530      F1531   1.358       .  S
C1535      C1536   1.403       .  A
C1535      C1540   1.397       .  A
C1535      H1542   1.084       .  S
C1536      C1537   1.409       .  A
C1537      C1538   1.395       .  A
C1538      C1539   1.403       .  A
C1538      H1543   1.085       .  S
C1539      C1540   1.410       .  A
C1540      F1541   1.358       .  S
C1545      C1546   1.409       .  A
C1545      C1550   1.405       .  A
C1545      H1552   1.084       .  S
C1546      C1547   1.407       .  A
C1547      C1548   1.402       .  A
C1547      F1554   1.357       .  S
C1548      C1549   1.409       .  A
C1548      H1553   1.084       .  S
C1549      C1550   1.408       .  A
C1550      F1551   1.357       .  S
C1555      C1556   1.407       .  A
C1555      H1562   1.083       .  S
C1556      C1557   1.405   1_554  A
C1557      F1564   1.358       .  S
C1558      C1559   1.410       .  A
C1558      H1563   1.083       .  S
C1559      C1560   1.409   1_556  A
C1560      F1561   1.357       .  S
C1565      C1566   1.407       .  A
C1565      C1570   1.399       .  A
C1565      H1572   1.083       .  S
C1566      C1567   1.409       .  A
C1567      C1568   1.398       .  A
C1567      F1574   1.357       .  S
C1568      C1569   1.404       .  A
C1568      H1573   1.083       .  S
C1569      C1570   1.406       .  A
C1570      F1571   1.358       .  S
C1575      C1576   1.408   1_556  A
C1575      C1580   1.401       .  A
C1575      H1582   1.083       .  S
C1576      C1577   1.406       .  A
C1577      C1578   1.397       .  A
C1577      F1584   1.357       .  S
C1578      C1579   1.407   1_554  A
C1578      H1583   1.083       .  S
C1579      C1580   1.408       .  A
C1580      F1581   1.357       .  S
