geometry optimzed in LAMMPS
_audit_creation_date              2020-11-30 
_audit_creation_method            'lammps2cif' 
_symmetry_space_group_name_H-M    'P1' 
_symmetry_Int_Tables_number       1 
_symmetry_cell_setting            triclinic 
loop_ 
_symmetry_equiv_pos_as_xyz 
  x,y,z 
_cell_length_a                    26.734875065643774 
_cell_length_b                    26.660629343260325 
_cell_length_c                    32.12591036417379 
_cell_angle_alpha                 90.13654002791218 
_cell_angle_beta                  90.46782382489776 
_cell_angle_gamma                 90.00509811803336 
loop_ 
_atom_site_label 
_atom_site_type_symbol 
_atom_site_fract_x 
_atom_site_fract_y 
_atom_site_fract_z 
_atom_site_charge 
C1          C  0.25252972  0.24609638  0.74863850    -0.02050
O2          O  0.11100083  0.07990037  0.49896480    -0.74860
O3          O  0.17249057  0.13986056  0.49861691    -0.53760
C4          C  0.12620349  0.12585372  0.49887304     0.78870
O5          O  0.25257840  0.41757167  0.61434881    -0.59460
O6          O  0.25554337  0.35368011  0.56717228    -0.52490
C7          C  0.25367596  0.37145848  0.60469954     0.70890
O8          O  0.25732706  0.07406132  0.61438016    -0.74010
O9          O  0.25113312  0.13758634  0.56727362    -0.54580
C10         C  0.25449824  0.12007151  0.60478675     0.76890
O11         O  0.11156774  0.41037986  0.49743921    -0.59160
O12         O  0.17351720  0.35085187  0.49793704    -0.52280
C13         C  0.12708409  0.36453685  0.49761786     0.73480
Zr14       Zr  0.14758182  0.49521941  0.49799847     2.54710
O15         O  0.08733754  0.49440192  0.55440404    -0.79720
O16         O  0.08606838  0.49452358  0.44166564    -0.93140
Zr17       Zr  0.25417211  0.49577939  0.58168805     2.64940
O18         O  0.18737666  0.00063959  0.63269591    -0.98100
O19         O  0.32023863  0.49228229  0.63423612    -0.80160
O20         O  0.19990809  0.04545666  0.54115887    -0.83510
O21         O  0.20031263  0.44560887  0.54103162    -2.18220
O22         O  0.24814513  0.41494122  0.38264111    -0.66900
O23         O  0.25584652  0.35246861  0.43083778    -0.51470
C24         C  0.25199084  0.36909186  0.39316812     0.71860
O25         O  0.39500165  0.08071049  0.49697575    -0.59810
O26         O  0.33310107  0.14024825  0.49843325    -0.51790
C27         C  0.37951115  0.12655789  0.49762010     0.73670
O28         O  0.39564033  0.41125508  0.49870998    -0.71210
O29         O  0.33416847  0.35128593  0.49918825    -0.49880
C30         C  0.38045104  0.36530059  0.49904699     0.75050
O31         O  0.25744120  0.07530322  0.38259236    -0.66540
O32         O  0.25223728  0.13819988  0.43083365    -0.53730
C33         C  0.25555570  0.12130160  0.39319998     0.73430
Zr34       Zr  0.25218566  0.49530453  0.41400629     2.77540
O35         O  0.31693741  0.99311360  0.36106916    -0.97290
O36         O  0.18411725  0.49907249  0.36330828    -0.78110
Zr37       Zr  0.35895710  0.49588453  0.49792896     2.70070
O38         O  0.41868009  0.49488304  0.44115185    -0.79350
O39         O  0.42052925  0.49794787  0.55416794    -0.98440
Zr40       Zr  0.25278707  0.09539057  0.49856219     2.21500
Zr41       Zr  0.25385424  0.39569953  0.49855671     2.11130
O42         O  0.30624231  0.44578332  0.45516855    -2.47130
O43         O  0.30562067  0.04549498  0.45538294    -0.79150
O44         O  0.19982301  0.44509352  0.45537656    -0.71340
O45         O  0.30718310  0.04573716  0.54099863    -2.32300
O46         O  0.19926058  0.04531866  0.45514742    -2.28510
O47         O  0.30767116  0.44581434  0.54119182    -0.73100
H48         H  0.18000200  0.42480945  0.55874719     0.78890
H49         H  0.32786887  0.06664598  0.55868611     0.79980
H50         H  0.32657428  0.42487324  0.43748244     0.82210
H51         H  0.17878220  0.06620900  0.43735804     0.79810
H52         H  0.34688378  0.01452247  0.62363306     0.42850
H53         H  0.41248061  0.46848198  0.57158298     0.41820
H54         H  0.40308735  0.01600917  0.41931405     0.41500
H55         H  0.33633145  0.46219980  0.36669888     0.39430
H56         H  0.15923732  0.47453049  0.37341156     0.42560
H57         H  0.09324481  0.02503293  0.42525130     0.37350
H58         H  0.09996044  0.01981230  0.57441311     0.43460
H59         H  0.16587251  0.47114426  0.62698941     0.39880
H60         H  0.29877166  0.48607987  0.33471153     0.44800
H61         H  0.05385357  0.50175999  0.45543752     0.43520
H62         H  0.20385668  0.49308028  0.65967630     0.43660
H63         H  0.45254319  0.48915280  0.54069186     0.44010
C64         C  0.47764238  0.24570687  0.49834901     0.01000
C65         C  0.02895654  0.24540928  0.49832611     0.01000
C66         C  0.25839898  0.24498538  0.24837506    -0.02050
C67         C  0.22969440  0.49659195  0.99787487     0.01000
C68         C  0.28085633  0.49615502  0.99810250     0.01000
O69         O  0.08124824  0.25971935  0.88262558    -0.74860
O70         O  0.14499673  0.24493430  0.92848846    -0.53760
C71         C  0.12704692  0.25269775  0.89148990     0.78870
O72         O  0.42020288  0.38787475  0.99984306    -0.59460
O73         O  0.36005478  0.32656694  0.99960317    -0.52490
C74         C  0.37428358  0.37299380  0.99975835     0.70890
O75         O  0.08921096  0.38861069  0.99800862    -0.74010
O76         O  0.14980015  0.32774544  0.99677313    -0.54580
C77         C  0.13524038  0.37405231  0.99726046     0.76890
O78         O  0.42546834  0.23934182  0.88305025    -0.59160
O79         O  0.36260680  0.24703838  0.93015583    -0.52280
C80         C  0.37966840  0.24254579  0.89269986     0.73480
Zr81       Zr  0.00407911  0.24671353  0.91496574     2.54710
O82         O  0.99434684  0.31151709  0.86225675    -0.79720
O83         O  0.51047480  0.17962603  0.86355831    -0.93140
Zr84       Zr  0.00483004  0.35210950  0.99905395     2.64680
O85         O  0.00429244  0.41354032  0.94304537    -0.98100
O86         O  0.50506612  0.41343002  0.05536002    -0.80160
O87         O  0.05438198  0.30035817  0.95571565    -0.83510
O88         O  0.45445835  0.29988017  0.95601757    -2.18220
O89         O  0.42133991  0.10418135  0.99708374    -0.66900
O90         O  0.36074881  0.16503379  0.99774285    -0.51470
C91         C  0.37529876  0.11872696  0.99729484     0.71860
O92         O  0.08722643  0.24132956  0.11372052    -0.59810
O93         O  0.14908877  0.24814205  0.06538074    -0.51790
C94         C  0.13289915  0.24429765  0.10306125     0.73670
O95         O  0.42800317  0.24890703  0.11489168    -0.71210
O96         O  0.36430980  0.24391057  0.06717063    -0.49880
C97         C  0.38196793  0.24649090  0.10473574     0.75050
O98         O  0.09029759  0.10481727  0.99851215    -0.66540
O99         O  0.15046413  0.16612280  0.99830507    -0.53730
C100        C  0.13621978  0.11969953  0.99846592     0.73430
Zr101      Zr  0.00576248  0.14071718  0.99792568     2.77540
O102        O  0.00683835  0.07846710  0.05329334    -0.97290
O103        O  0.00603814  0.08061386  0.94075898    -0.78110
Zr104      Zr  0.00694924  0.24615437  0.08243738     2.70070
O105        O  0.00435846  0.17985078  0.13433237    -0.79350
O106        O  0.01221436  0.31387561  0.13330064    -0.98440
Zr107      Zr  0.10537605  0.24679423  0.99769093     2.21500
Zr108      Zr  0.40525503  0.24596478  0.99875680     2.11130
O109        O  0.45651731  0.19274256  0.04130174    -2.47130
O110        O  0.05628277  0.19315730  0.04070941    -0.79150
O111        O  0.45480474  0.19289552  0.95560732    -0.71340
O112        O  0.05583772  0.29981353  0.04128856    -2.32300
O113        O  0.05497786  0.19305020  0.95492961    -2.28510
O114        O  0.45575041  0.29934188  0.04187532    -0.73100
H115        H  0.43341068  0.32019193  0.93822167     0.78890
H116        H  0.07689764  0.32023895  0.05906485     0.79980
H117        H  0.43617351  0.17208176  0.05910659     0.82210
H118        H  0.07555472  0.17276536  0.93694829     0.79810
H119        H  0.03224298  0.40246843  0.07437052     0.42850
H120        H  0.48339995  0.33590026  0.12674909     0.41820
H121        H  0.02502597  0.15258497  0.12249986     0.41500
H122        H  0.47658505  0.08554459  0.06987500     0.39430
H123        H  0.48377079  0.09560999  0.91938709     0.42560
H124        H  0.04537512  0.16740213  0.86546367     0.37350
H125        H  0.01259692  0.34083014  0.87372593     0.43460
H126        H  0.47286218  0.40714479  0.92740934     0.39880
H127        H  0.99943762  0.04631145  0.03902978     0.44800
H128        H  0.00857998  0.19693666  0.83635352     0.43520
H129        H  0.99869081  0.44608366  0.95717863     0.43660
H130        H  0.00355097  0.29802449  0.16013756     0.44010
C131        C  0.31010790  0.04275527  0.99768493    -0.12840
C132        C  0.33764475  0.07920686  0.99733508    -0.14400
C133        C  0.20044146  0.44999691  0.99753130    -0.12840
C134        C  0.17289062  0.41355759  0.99723492    -0.14400
C135        C  0.33647661  0.41234656  0.99944878    -0.12840
C136        C  0.30931060  0.44906899  0.99881770    -0.14400
C137        C  0.17402548  0.08035751  0.99834582    -0.12840
C138        C  0.20122655  0.04366470  0.99806409    -0.14400
C139        C  0.33049471  0.28338871  0.20774209    -0.12910
C140        C  0.30325439  0.24034270  0.21903213     0.09240
C141        C  0.30484248  0.19817472  0.19214732    -0.12910
C142        C  0.32670300  0.20151349  0.15298558    -0.12910
C143        C  0.34937268  0.24618277  0.14069759     0.09240
C144        C  0.35328175  0.28607155  0.16904395    -0.12910
H145        H  0.33053358  0.31684077  0.22681885     0.13220
H146        H  0.28458336  0.16429252  0.19976492     0.13220
H147        H  0.32653685  0.16911820  0.13255787     0.13220
H148        H  0.37374063  0.31970220  0.16090055     0.13220
C149        C  0.19146536  0.28783012  0.15052848    -0.12910
C150        C  0.16698339  0.24382455  0.13853685     0.09240
C151        C  0.16333442  0.20400291  0.16675375    -0.12910
C152        C  0.18722941  0.20634106  0.20531069    -0.12910
C153        C  0.21500710  0.24915306  0.21684289     0.09240
C154        C  0.21433451  0.29090526  0.18962272    -0.12910
H155        H  0.19187833  0.32009280  0.13009067     0.13220
H156        H  0.14196791  0.17076644  0.15869816     0.13220
H157        H  0.18691476  0.17298117  0.22435152     0.13220
H158        H  0.23519692  0.32452307  0.19731689     0.13220
C159        C  0.21370333  0.33806991  0.32866440    -0.12910
C160        C  0.25321027  0.33550333  0.35749780     0.09240
C161        C  0.29844374  0.31368642  0.34577718    -0.12910
C162        C  0.30294639  0.29171695  0.30653355    -0.12910
C163        C  0.26159021  0.28953142  0.27873739     0.09240
C164        C  0.21769782  0.31550673  0.28976545    -0.12910
H165        H  0.17949921  0.35767149  0.33643739     0.13220
H166        H  0.33046103  0.31445829  0.36666498     0.13220
H167        H  0.33734675  0.27223423  0.29933409     0.13220
H168        H  0.18468459  0.31485756  0.27011345     0.13220
C169        C  0.29807928  0.15222055  0.33121630    -0.12910
C170        C  0.25680478  0.15490063  0.35771916     0.09240
C171        C  0.21253422  0.17701585  0.34361486    -0.12910
C172        C  0.21060752  0.19907806  0.30434291    -0.12910
C173        C  0.25354696  0.20091800  0.27883963     0.09240
C174        C  0.29665762  0.17493402  0.29228189    -0.12910
H175        H  0.33162438  0.13242296  0.34084104     0.13220
H176        H  0.17928200  0.17642157  0.36266302     0.13220
H177        H  0.17678379  0.21871307  0.29533740     0.13220
H178        H  0.33081971  0.17550630  0.27450845     0.13220
C179        C  0.41849846  0.32639513  0.49900370    -0.12840
C180        C  0.44835375  0.29197207  0.49870487    -0.14400
C181        C  0.05826265  0.19915383  0.49858451    -0.12840
C182        C  0.08815062  0.16475546  0.49882622    -0.14400
C183        C  0.05891693  0.29130564  0.49802244    -0.12840
C184        C  0.08913657  0.32545301  0.49772025    -0.14400
C185        C  0.44767525  0.19980586  0.49800543    -0.12840
C186        C  0.41746231  0.16564344  0.49770170    -0.14400
C187        C  0.29086762  0.28884174  0.81134714    -0.12910
C188        C  0.29685603  0.25237627  0.77936976     0.09240
C189        C  0.33709625  0.21924031  0.78313669    -0.12910
C190        C  0.36061706  0.21325034  0.82159380    -0.12910
C191        C  0.34720705  0.24321672  0.85600650     0.09240
C192        C  0.31400704  0.28281350  0.84998602    -0.12910
H193        H  0.26313924  0.31824038  0.80816615     0.13220
H194        H  0.35163880  0.19899183  0.75691462     0.13220
H195        H  0.39069932  0.18615425  0.82417282     0.13220
H196        H  0.30677263  0.30947503  0.87471894     0.13220
C197        C  0.16794917  0.27373770  0.78157984    -0.12910
C198        C  0.20778658  0.24009809  0.77830358     0.09240
C199        C  0.21332919  0.20366057  0.81026304    -0.12910
C200        C  0.19067713  0.21041674  0.84870844    -0.12910
C201        C  0.15821976  0.25064936  0.85444720     0.09240
C202        C  0.14478573  0.28039399  0.81983367    -0.12910
H203        H  0.15363627  0.29405074  0.75519134     0.13220
H204        H  0.24073405  0.17394416  0.80740917     0.13220
H205        H  0.19790061  0.18395314  0.87358348     0.13220
H206        H  0.11525112  0.30807734  0.82213470     0.13220
C207        C  0.29722742  0.28322719  0.68722468    -0.12910
C208        C  0.26028323  0.29023303  0.71834664     0.09240
C209        C  0.22779977  0.33089874  0.71372125    -0.12910
C210        C  0.22292471  0.35386623  0.67505711    -0.12910
C211        C  0.25342018  0.33950136  0.64141679     0.09240
C212        C  0.29237092  0.30589568  0.64841788    -0.12910
H213        H  0.32604196  0.25502674  0.69109565     0.13220
H214        H  0.20715951  0.34609974  0.73939586     0.13220
H215        H  0.19628383  0.38426430  0.67170764     0.13220
H216        H  0.31934998  0.29790991  0.62431054     0.13220
C217        C  0.27813368  0.16115428  0.71454314    -0.12910
C218        C  0.24526167  0.20156477  0.71839662     0.09240
C219        C  0.20869200  0.20806763  0.68644263    -0.12910
C220        C  0.21436955  0.18528886  0.64773083    -0.12910
C221        C  0.25386274  0.15215622  0.64157952     0.09240
C222        C  0.28399302  0.13825015  0.67594303    -0.12910
H223        H  0.29848555  0.14624209  0.74071908     0.13220
H224        H  0.17961030  0.23606559  0.68965234     0.13220
H225        H  0.18764781  0.19287676  0.62300614     0.13220
H226        H  0.31109242  0.10820797  0.67320373     0.13220
C227        C  0.25252977  0.74609639  0.74863849    -0.02050
O228        O  0.11100082  0.57990038  0.49896478    -0.74860
O229        O  0.17249056  0.63986057  0.49861690    -0.53760
C230        C  0.12620348  0.62585373  0.49887303     0.78870
O231        O  0.25257841  0.91757166  0.61434880    -0.59460
O232        O  0.25554337  0.85368010  0.56717227    -0.52490
C233        C  0.25367596  0.87145847  0.60469952     0.70890
O234        O  0.25732705  0.57406134  0.61438015    -0.74010
O235        O  0.25113313  0.63758635  0.56727361    -0.54580
C236        C  0.25449825  0.62007153  0.60478674     0.76890
O237        O  0.11156775  0.91037986  0.49743922    -0.59160
O238        O  0.17351721  0.85085187  0.49793704    -0.52280
C239        C  0.12708410  0.86453685  0.49761786     0.73480
Zr240      Zr  0.14758184  0.99521941  0.49799848     2.54710
O241        O  0.08733756  0.99440191  0.55440406    -0.79720
O242        O  0.08606839  0.99452358  0.44166566    -0.93140
Zr243      Zr  0.25417214  0.99577938  0.58168804     2.64940
O244        O  0.18737661  0.50063961  0.63269588    -0.98100
O245        O  0.32023869  0.99228227  0.63423609    -0.80160
O246        O  0.19990807  0.54545667  0.54115886    -0.83510
O247        O  0.20031265  0.94560886  0.54103162    -2.18220
O248        O  0.24814512  0.91494122  0.38264111    -0.66900
O249        O  0.25584653  0.85246860  0.43083779    -0.51470
C250        C  0.25199084  0.86909185  0.39316812     0.71860
O251        O  0.39500164  0.58071048  0.49697576    -0.59810
O252        O  0.33310106  0.64024825  0.49843325    -0.51790
C253        C  0.37951114  0.62655789  0.49762011     0.73670
O254        O  0.39564034  0.91125508  0.49870997    -0.71210
O255        O  0.33416848  0.85128593  0.49918824    -0.49880
C256        C  0.38045105  0.86530059  0.49904698     0.75050
O257        O  0.25744123  0.57530323  0.38259236    -0.66540
O258        O  0.25223728  0.63819988  0.43083366    -0.53730
C259        C  0.25555572  0.62130160  0.39319999     0.73430
Zr260      Zr  0.25218566  0.99530452  0.41400629     2.77540
O261        O  0.31693742  0.49311359  0.36106916    -0.97290
O262        O  0.18411725  0.99907247  0.36330828    -0.78110
Zr263      Zr  0.35895712  0.99588453  0.49792895     2.70070
O264        O  0.41868010  0.99488304  0.44115184    -0.79350
O265        O  0.42052927  0.99794787  0.55416792    -0.98440
Zr266      Zr  0.25278706  0.59539057  0.49856218     2.21500
Zr267      Zr  0.25385425  0.89569953  0.49855671     2.11130
O268        O  0.30624232  0.94578332  0.45516854    -2.47130
O269        O  0.30562066  0.54549498  0.45538294    -0.79150
O270        O  0.19982301  0.94509352  0.45537656    -0.71340
O271        O  0.30718308  0.54573717  0.54099864    -2.32300
O272        O  0.19926058  0.54531866  0.45514741    -2.28510
O273        O  0.30767118  0.94581434  0.54119181    -0.73100
H274        H  0.18000202  0.92480944  0.55874720     0.78890
H275        H  0.32786885  0.56664598  0.55868612     0.79980
H276        H  0.32657429  0.92487324  0.43748243     0.82210
H277        H  0.17878220  0.56620900  0.43735803     0.79810
H278        H  0.34688375  0.51452244  0.62363307     0.42850
H279        H  0.41248063  0.96848198  0.57158297     0.41820
H280        H  0.40308735  0.51600917  0.41931406     0.41500
H281        H  0.33633145  0.96219980  0.36669887     0.39430
H282        H  0.15923732  0.97453047  0.37341156     0.42560
H283        H  0.09324480  0.52503294  0.42525128     0.37350
H284        H  0.09996040  0.51981232  0.57441308     0.43460
H285        H  0.16587255  0.97114426  0.62698942     0.39880
H286        H  0.29877166  0.98607988  0.33471153     0.44800
H287        H  0.05385358  0.00175999  0.45543754     0.43520
H288        H  0.20385675  0.99308024  0.65967631     0.43660
H289        H  0.45254321  0.98915280  0.54069184     0.44010
C290        C  0.47764238  0.74570686  0.49834901     0.01000
C291        C  0.02895653  0.74540930  0.49832611     0.01000
C292        C  0.25839900  0.74498539  0.24837507    -0.02050
C293        C  0.22969443  0.99659196  0.99787488     0.01000
C294        C  0.28085636  0.99615503  0.99810248     0.01000
O295        O  0.08124829  0.75971837  0.88262547    -0.74860
O296        O  0.14499689  0.74493449  0.92848853    -0.53760
C297        C  0.12704704  0.75269741  0.89148990     0.78870
O298        O  0.42020290  0.88787474  0.99984296    -0.59460
O299        O  0.36005479  0.82656693  0.99960317    -0.52490
C300        C  0.37428360  0.87299380  0.99975830     0.70890
O301        O  0.08921097  0.88861072  0.99800866    -0.74010
O302        O  0.14980015  0.82774547  0.99677318    -0.54580
C303        C  0.13524039  0.87405233  0.99726051     0.76890
O304        O  0.42546827  0.73934194  0.88305025    -0.59160
O305        O  0.36260673  0.74703832  0.93015586    -0.52280
C306        C  0.37966833  0.74254583  0.89269988     0.73480
Zr307      Zr  0.00407910  0.74671360  0.91496576     2.54710
O308        O  0.99434747  0.81151740  0.86225691    -0.79720
O309        O  0.51047326  0.67962603  0.86355804    -0.93140
Zr310      Zr  0.00483005  0.85210952  0.99905400     2.64680
O311        O  0.00429245  0.91354040  0.94304547    -0.98100
O312        O  0.50506611  0.91343011  0.05535980    -0.80160
O313        O  0.05438200  0.80035821  0.95571567    -0.83510
O314        O  0.45445831  0.79988009  0.95601753    -2.18220
O315        O  0.42133990  0.60418132  0.99708386    -0.66900
O316        O  0.36074879  0.66503377  0.99774289    -0.51470
C317        C  0.37529874  0.61872694  0.99729492     0.71860
O318        O  0.08722643  0.74132953  0.11372053    -0.59810
O319        O  0.14908877  0.74814206  0.06538076    -0.51790
C320        C  0.13289915  0.74429764  0.10306126     0.73670
O321        O  0.42800317  0.74890715  0.11489168    -0.71210
O322        O  0.36430979  0.74391057  0.06717065    -0.49880
C323        C  0.38196793  0.74649097  0.10473576     0.75050
O324        O  0.09029757  0.60481728  0.99851212    -0.66540
O325        O  0.15046412  0.66612281  0.99830505    -0.53730
C326        C  0.13621976  0.61969953  0.99846588     0.73430
Zr327      Zr  0.00576246  0.64071720  0.99792565     2.77540
O328        O  0.00683834  0.57846707  0.05329327    -0.97290
O329        O  0.00603813  0.58061396  0.94075889    -0.78110
Zr330      Zr  0.00694925  0.74615434  0.08243739     2.70070
O331        O  0.00435847  0.67985071  0.13433233    -0.79350
O332        O  0.01221437  0.81387555  0.13330067    -0.98440
Zr333      Zr  0.10537606  0.74679425  0.99769094     2.21500
Zr334      Zr  0.40525500  0.74596476  0.99875682     2.11130
O335        O  0.45651729  0.69274261  0.04130182    -2.47130
O336        O  0.05628277  0.69315730  0.04070939    -0.79150
O337        O  0.45480469  0.69289539  0.95560741    -0.71340
O338        O  0.05583774  0.79981353  0.04128859    -2.32300
O339        O  0.05497785  0.69305026  0.95492962    -2.28510
O340        O  0.45575042  0.79934192  0.04187526    -0.73100
H341        H  0.43341063  0.82019183  0.93822162     0.78890
H342        H  0.07689765  0.82023894  0.05906489     0.79980
H343        H  0.43617350  0.67208183  0.05910669     0.82210
H344        H  0.07555471  0.67276542  0.93694829     0.79810
H345        H  0.03224306  0.90246843  0.07437057     0.42850
H346        H  0.48339991  0.83590039  0.12674904     0.41820
H347        H  0.02502598  0.65258491  0.12249981     0.41500
H348        H  0.47658498  0.58554466  0.06987518     0.39430
H349        H  0.48377076  0.59560980  0.91938730     0.42560
H350        H  0.04537407  0.66740144  0.86546393     0.37350
H351        H  0.01259793  0.84083021  0.87372611     0.43460
H352        H  0.47286229  0.90714446  0.92740904     0.39880
H353        H  0.99943758  0.54631144  0.03902969     0.44800
H354        H  0.00857987  0.69693676  0.83635351     0.43520
H355        H  0.99869067  0.94608371  0.95717874     0.43660
H356        H  0.00355097  0.79802442  0.16013758     0.44010
C357        C  0.31010787  0.54275526  0.99768497    -0.12840
C358        C  0.33764473  0.57920684  0.99733514    -0.14400
C359        C  0.20044149  0.94999692  0.99753133    -0.12840
C360        C  0.17289063  0.91355761  0.99723496    -0.14400
C361        C  0.33647664  0.91234656  0.99944874    -0.12840
C362        C  0.30931063  0.94906900  0.99881767    -0.14400
C363        C  0.17402546  0.58035750  0.99834578    -0.12840
C364        C  0.20122652  0.54366469  0.99806406    -0.14400
C365        C  0.33049473  0.78338872  0.20774213    -0.12910
C366        C  0.30325440  0.74034271  0.21903215     0.09240
C367        C  0.30484249  0.69817474  0.19214732    -0.12910
C368        C  0.32670301  0.70151353  0.15298558    -0.12910
C369        C  0.34937270  0.74618281  0.14069761     0.09240
C370        C  0.35328178  0.78607158  0.16904398    -0.12910
H371        H  0.33053362  0.81684077  0.22681889     0.13220
H372        H  0.28458336  0.66429254  0.19976492     0.13220
H373        H  0.32653685  0.66911825  0.13255786     0.13220
H374        H  0.37374067  0.81970222  0.16090060     0.13220
C375        C  0.19146538  0.78783011  0.15052848    -0.12910
C376        C  0.16698339  0.74382454  0.13853687     0.09240
C377        C  0.16333440  0.70400292  0.16675378    -0.12910
C378        C  0.18722940  0.70634107  0.20531071    -0.12910
C379        C  0.21500711  0.74915306  0.21684290     0.09240
C380        C  0.21433454  0.79090526  0.18962271    -0.12910
H381        H  0.19187836  0.82009278  0.13009066     0.13220
H382        H  0.14196788  0.67076646  0.15869820     0.13220
H383        H  0.18691474  0.67298119  0.22435155     0.13220
H384        H  0.23519696  0.82452306  0.19731688     0.13220
C385        C  0.21370332  0.83806990  0.32866441    -0.12910
C386        C  0.25321027  0.83550332  0.35749781     0.09240
C387        C  0.29844375  0.81368642  0.34577719    -0.12910
C388        C  0.30294639  0.79171696  0.30653356    -0.12910
C389        C  0.26159021  0.78953142  0.27873740     0.09240
C390        C  0.21769782  0.81550672  0.28976546    -0.12910
H391        H  0.17949920  0.85767147  0.33643740     0.13220
H392        H  0.33046104  0.81445830  0.36666498     0.13220
H393        H  0.33734676  0.77223424  0.29933409     0.13220
H394        H  0.18468459  0.81485755  0.27011346     0.13220
C395        C  0.29807930  0.65222056  0.33121631    -0.12910
C396        C  0.25680480  0.65490063  0.35771916     0.09240
C397        C  0.21253424  0.67701584  0.34361486    -0.12910
C398        C  0.21060754  0.69907806  0.30434292    -0.12910
C399        C  0.25354698  0.70091800  0.27883964     0.09240
C400        C  0.29665765  0.67493403  0.29228190    -0.12910
H401        H  0.33162441  0.63242298  0.34084105     0.13220
H402        H  0.17928201  0.67642156  0.36266302     0.13220
H403        H  0.17678381  0.71871306  0.29533740     0.13220
H404        H  0.33081973  0.67550632  0.27450846     0.13220
C405        C  0.41849847  0.82639512  0.49900369    -0.12840
C406        C  0.44835375  0.79197205  0.49870486    -0.14400
C407        C  0.05826264  0.69915385  0.49858449    -0.12840
C408        C  0.08815062  0.66475547  0.49882620    -0.14400
C409        C  0.05891692  0.79130565  0.49802245    -0.12840
C410        C  0.08913658  0.82545301  0.49772026    -0.14400
C411        C  0.44767525  0.69980584  0.49800543    -0.12840
C412        C  0.41746231  0.66564343  0.49770171    -0.14400
C413        C  0.29086766  0.78884181  0.81134710    -0.12910
C414        C  0.29685609  0.75237632  0.77936973     0.09240
C415        C  0.33709628  0.71924034  0.78313671    -0.12910
C416        C  0.36061702  0.71325035  0.82159383    -0.12910
C417        C  0.34720698  0.74321675  0.85600653     0.09240
C418        C  0.31400702  0.78281357  0.84998600    -0.12910
H419        H  0.26313930  0.81824046  0.80816608     0.13220
H420        H  0.35163886  0.69899186  0.75691464     0.13220
H421        H  0.39069926  0.68615424  0.82417289     0.13220
H422        H  0.30677261  0.80947511  0.87471891     0.13220
C423        C  0.16794926  0.77373766  0.78157992    -0.12910
C424        C  0.20778667  0.74009805  0.77830359     0.09240
C425        C  0.21332933  0.70366050  0.81026301    -0.12910
C426        C  0.19067731  0.71041659  0.84870844    -0.12910
C427        C  0.15821995  0.75064919  0.85444726     0.09240
C428        C  0.14478586  0.78039388  0.81983377    -0.12910
H429        H  0.15363631  0.79405073  0.75519146     0.13220
H430        H  0.24073419  0.67394409  0.80740909     0.13220
H431        H  0.19790081  0.68395295  0.87358344     0.13220
H432        H  0.11525122  0.80807719  0.82213487     0.13220
C433        C  0.29722745  0.78322723  0.68722467    -0.12910
C434        C  0.26028324  0.79023304  0.71834662     0.09240
C435        C  0.22779974  0.83089871  0.71372122    -0.12910
C436        C  0.22292467  0.85386619  0.67505707    -0.12910
C437        C  0.25342017  0.83950134  0.64141677     0.09240
C438        C  0.29237094  0.80589570  0.64841787    -0.12910
H439        H  0.32604202  0.75502681  0.69109566     0.13220
H440        H  0.20715946  0.84609972  0.73939581     0.13220
H441        H  0.19628376  0.88426424  0.67170759     0.13220
H442        H  0.31935002  0.79790995  0.62431054     0.13220
C443        C  0.27813377  0.66115431  0.71454310    -0.12910
C444        C  0.24526174  0.70156478  0.71839661     0.09240
C445        C  0.20869204  0.70806763  0.68644264    -0.12910
C446        C  0.21436957  0.68528886  0.64773084    -0.12910
C447        C  0.25386277  0.65215625  0.64157950     0.09240
C448        C  0.28399309  0.63825019  0.67594299    -0.12910
H449        H  0.29848566  0.64624213  0.74071903     0.13220
H450        H  0.17961032  0.73606556  0.68965236     0.13220
H451        H  0.18764780  0.69287674  0.62300616     0.13220
H452        H  0.31109250  0.60820803  0.67320367     0.13220
C453        C  0.75252973  0.24609639  0.74863851    -0.02050
O454        O  0.61100081  0.07990039  0.49896478    -0.74860
O455        O  0.67249056  0.13986057  0.49861691    -0.53760
C456        C  0.62620348  0.12585374  0.49887304     0.78870
O457        O  0.75257845  0.41757168  0.61434882    -0.59460
O458        O  0.75554340  0.35368012  0.56717230    -0.52490
C459        C  0.75367600  0.37145849  0.60469955     0.70890
O460        O  0.75732705  0.07406132  0.61438017    -0.74010
O461        O  0.75113311  0.13758634  0.56727363    -0.54580
C462        C  0.75449824  0.12007151  0.60478676     0.76890
O463        O  0.61156776  0.41037987  0.49743928    -0.59160
O464        O  0.67351721  0.35085187  0.49793707    -0.52280
C465        C  0.62708410  0.36453686  0.49761790     0.73480
Zr466      Zr  0.64758185  0.49521941  0.49799853     2.54710
O467        O  0.58733763  0.49440192  0.55440415    -0.79720
O468        O  0.58606835  0.49452359  0.44166575    -0.93140
Zr469      Zr  0.75417221  0.49577940  0.58168805     2.64940
O470        O  0.68737663  0.00063971  0.63269593    -0.98100
O471        O  0.82023871  0.49228216  0.63423613    -0.80160
O472        O  0.69990805  0.04545667  0.54115887    -0.83510
O473        O  0.70031269  0.44560887  0.54103166    -2.18220
O474        O  0.74814506  0.41494121  0.38264112    -0.66900
O475        O  0.75584652  0.35246860  0.43083779    -0.51470
C476        C  0.75199080  0.36909184  0.39316812     0.71860
O477        O  0.89500163  0.08071047  0.49697577    -0.59810
O478        O  0.83310106  0.14024825  0.49843326    -0.51790
C479        C  0.87951113  0.12655788  0.49762012     0.73670
O480        O  0.89564035  0.41125506  0.49870992    -0.71210
O481        O  0.83416848  0.35128591  0.49918824    -0.49880
C482        C  0.88045105  0.36530057  0.49904696     0.75050
O483        O  0.75744121  0.07530323  0.38259237    -0.66540
O484        O  0.75223727  0.13819988  0.43083367    -0.53730
C485        C  0.75555570  0.12130160  0.39319999     0.73430
Zr486      Zr  0.75218561  0.49530451  0.41400629     2.77540
O487        O  0.81693743  0.99311361  0.36106917    -0.97290
O488        O  0.68411717  0.49907247  0.36330831    -0.78110
Zr489      Zr  0.85895713  0.49588451  0.49792889     2.70070
O490        O  0.91868003  0.49488301  0.44115172    -0.79350
O491        O  0.92052937  0.49794785  0.55416780    -0.98440
Zr492      Zr  0.75278706  0.09539057  0.49856220     2.21500
Zr493      Zr  0.75385426  0.39569952  0.49855672     2.11130
O494        O  0.80624229  0.44578330  0.45516852    -2.47130
O495        O  0.80562066  0.04549498  0.45538296    -0.79150
O496        O  0.69982300  0.44509352  0.45537659    -0.71340
O497        O  0.80718306  0.04573716  0.54099866    -2.32300
O498        O  0.69926057  0.04531867  0.45514742    -2.28510
O499        O  0.80767122  0.44581434  0.54119179    -0.73100
H500        H  0.68000207  0.42480946  0.55874724     0.78890
H501        H  0.82786883  0.06664597  0.55868614     0.79980
H502        H  0.82657425  0.42487322  0.43748240     0.82210
H503        H  0.67878220  0.06620901  0.43735804     0.79810
H504        H  0.84688370  0.01452244  0.62363311     0.42850
H505        H  0.91248078  0.46848195  0.57158284     0.41820
H506        H  0.90308735  0.01600914  0.41931409     0.41500
H507        H  0.83633138  0.46219978  0.36669884     0.39430
H508        H  0.65923724  0.47453048  0.37341161     0.42560
H509        H  0.59324480  0.02503296  0.42525127     0.37350
H510        H  0.59996037  0.01981233  0.57441307     0.43460
H511        H  0.66587259  0.47114441  0.62698942     0.39880
H512        H  0.79877156  0.48607985  0.33471151     0.44800
H513        H  0.55385356  0.50176003  0.45543765     0.43520
H514        H  0.70385676  0.49308047  0.65967629     0.43660
H515        H  0.95254329  0.48915282  0.54069168     0.44010
C516        C  0.97764238  0.24570685  0.49834900     0.01000
C517        C  0.52895654  0.24540931  0.49832613     0.01000
C518        C  0.75839898  0.24498537  0.24837507    -0.02050
C519        C  0.72969442  0.49659195  0.99787490     0.01000
C520        C  0.78085636  0.49615503  0.99810251     0.01000
O521        O  0.58124824  0.25971935  0.88262558    -0.74860
O522        O  0.64499673  0.24493432  0.92848847    -0.53760
C523        C  0.62704692  0.25269776  0.89148990     0.78870
O524        O  0.92020290  0.38787475  0.99984307    -0.59460
O525        O  0.86005480  0.32656693  0.99960318    -0.52490
C526        C  0.87428360  0.37299380  0.99975836     0.70890
O527        O  0.58921096  0.38861070  0.99800863    -0.74010
O528        O  0.64980015  0.32774545  0.99677315    -0.54580
C529        C  0.63524038  0.37405232  0.99726048     0.76890
O530        O  0.92546834  0.23934180  0.88305026    -0.59160
O531        O  0.86260680  0.24703837  0.93015584    -0.52280
C532        C  0.87966840  0.24254578  0.89269988     0.73480
Zr533      Zr  0.50407911  0.24671355  0.91496573     2.54710
O534        O  0.49434684  0.31151713  0.86225676    -0.79720
O535        O  0.01047481  0.17962600  0.86355832    -0.93140
Zr536      Zr  0.50483003  0.35210951  0.99905394     2.64680
O537        O  0.50429244  0.41354033  0.94304537    -0.98100
O538        O  0.00506614  0.41343000  0.05536003    -0.80160
O539        O  0.55438198  0.30035818  0.95571565    -0.83510
O540        O  0.95445836  0.29988016  0.95601758    -2.18220
O541        O  0.92133991  0.10418134  0.99708377    -0.66900
O542        O  0.86074881  0.16503378  0.99774287    -0.51470
C543        C  0.87529876  0.11872696  0.99729487     0.71860
O544        O  0.58722641  0.24132957  0.11372052    -0.59810
O545        O  0.64908875  0.24814206  0.06538075    -0.51790
C546        C  0.63289913  0.24429765  0.10306126     0.73670
O547        O  0.92800319  0.24890703  0.11489169    -0.71210
O548        O  0.86430981  0.24391056  0.06717064    -0.49880
C549        C  0.88196795  0.24649090  0.10473576     0.75050
O550        O  0.59029758  0.10481728  0.99851215    -0.66540
O551        O  0.65046412  0.16612281  0.99830508    -0.53730
C552        C  0.63621977  0.11969954  0.99846592     0.73430
Zr553      Zr  0.50576247  0.14071719  0.99792568     2.77540
O554        O  0.50683833  0.07846712  0.05329334    -0.97290
O555        O  0.50603815  0.08061387  0.94075898    -0.78110
Zr556      Zr  0.50694923  0.24615438  0.08243738     2.70070
O557        O  0.50435844  0.17985080  0.13433237    -0.79350
O558        O  0.51221433  0.31387563  0.13330062    -0.98440
Zr559      Zr  0.60537604  0.24679424  0.99769093     2.21500
Zr560      Zr  0.90525504  0.24596478  0.99875681     2.11130
O561        O  0.95651732  0.19274255  0.04130175    -2.47130
O562        O  0.55628275  0.19315732  0.04070941    -0.79150
O563        O  0.95480474  0.19289551  0.95560733    -0.71340
O564        O  0.55583771  0.29981355  0.04128856    -2.32300
O565        O  0.55497785  0.19305022  0.95492961    -2.28510
O566        O  0.95575042  0.29934187  0.04187533    -0.73100
H567        H  0.93341068  0.32019192  0.93822168     0.78890
H568        H  0.57689763  0.32023896  0.05906485     0.79980
H569        H  0.93617353  0.17208175  0.05910660     0.82210
H570        H  0.57555472  0.17276538  0.93694829     0.79810
H571        H  0.53224295  0.40246845  0.07437052     0.42850
H572        H  0.98339999  0.33590024  0.12674910     0.41820
H573        H  0.52502593  0.15258498  0.12249986     0.41500
H574        H  0.97658508  0.08554457  0.06987501     0.39430
H575        H  0.98377076  0.09560998  0.91938710     0.42560
H576        H  0.54537510  0.16740213  0.86546367     0.37350
H577        H  0.51259696  0.34083016  0.87372594     0.43460
H578        H  0.97286218  0.40714478  0.92740935     0.39880
H579        H  0.49943761  0.04631147  0.03902977     0.44800
H580        H  0.50858001  0.19693670  0.83635350     0.43520
H581        H  0.49869082  0.44608367  0.95717863     0.43660
H582        H  0.50355094  0.29802452  0.16013754     0.44010
C583        C  0.81010788  0.04275528  0.99768498    -0.12840
C584        C  0.83764474  0.07920686  0.99733512    -0.14400
C585        C  0.70044148  0.44999691  0.99753134    -0.12840
C586        C  0.67289063  0.41355759  0.99723495    -0.14400
C587        C  0.83647663  0.41234656  0.99944880    -0.12840
C588        C  0.80931063  0.44906900  0.99881771    -0.14400
C589        C  0.67402547  0.08035751  0.99834583    -0.12840
C590        C  0.70122653  0.04366470  0.99806410    -0.14400
C591        C  0.83049472  0.28338870  0.20774211    -0.12910
C592        C  0.80325438  0.24034269  0.21903214     0.09240
C593        C  0.80484247  0.19817471  0.19214732    -0.12910
C594        C  0.82670300  0.20151349  0.15298558    -0.12910
C595        C  0.84937270  0.24618276  0.14069761     0.09240
C596        C  0.85328178  0.28607153  0.16904397    -0.12910
H597        H  0.83053360  0.31684074  0.22681888     0.13220
H598        H  0.78458334  0.16429252  0.19976492     0.13220
H599        H  0.82653684  0.16911820  0.13255787     0.13220
H600        H  0.87374068  0.31970218  0.16090058     0.13220
C601        C  0.69146535  0.28783011  0.15052848    -0.12910
C602        C  0.66698337  0.24382455  0.13853686     0.09240
C603        C  0.66333438  0.20400292  0.16675377    -0.12910
C604        C  0.68722939  0.20634107  0.20531070    -0.12910
C605        C  0.71500709  0.24915305  0.21684289     0.09240
C606        C  0.71433452  0.29090526  0.18962271    -0.12910
H607        H  0.69187834  0.32009279  0.13009067     0.13220
H608        H  0.64196787  0.17076646  0.15869818     0.13220
H609        H  0.68691473  0.17298118  0.22435153     0.13220
H610        H  0.73519694  0.32452306  0.19731688     0.13220
C611        C  0.71370331  0.33806991  0.32866440    -0.12910
C612        C  0.75321024  0.33550331  0.35749781     0.09240
C613        C  0.79844371  0.31368640  0.34577720    -0.12910
C614        C  0.80294637  0.29171693  0.30653357    -0.12910
C615        C  0.76159020  0.28953141  0.27873740     0.09240
C616        C  0.71769782  0.31550673  0.28976544    -0.12910
H617        H  0.67949919  0.35767149  0.33643738     0.13220
H618        H  0.83046100  0.31445826  0.36666500     0.13220
H619        H  0.83734673  0.27223421  0.29933411     0.13220
H620        H  0.68468459  0.31485757  0.27011344     0.13220
C621        C  0.79807927  0.15222055  0.33121630    -0.12910
C622        C  0.75680477  0.15490063  0.35771916     0.09240
C623        C  0.71253422  0.17701585  0.34361487    -0.12910
C624        C  0.71060751  0.19907806  0.30434292    -0.12910
C625        C  0.75354695  0.20091799  0.27883963     0.09240
C626        C  0.79665761  0.17493401  0.29228189    -0.12910
H627        H  0.83162437  0.13242295  0.34084104     0.13220
H628        H  0.67928200  0.17642159  0.36266304     0.13220
H629        H  0.67678379  0.21871307  0.29533741     0.13220
H630        H  0.83081969  0.17550628  0.27450844     0.13220
C631        C  0.91849847  0.32639510  0.49900367    -0.12840
C632        C  0.94835375  0.29197204  0.49870484    -0.14400
C633        C  0.55826264  0.19915386  0.49858452    -0.12840
C634        C  0.58815061  0.16475548  0.49882622    -0.14400
C635        C  0.55891693  0.29130566  0.49802248    -0.12840
C636        C  0.58913658  0.32545302  0.49772029    -0.14400
C637        C  0.94767525  0.19980584  0.49800543    -0.12840
C638        C  0.91746230  0.16564343  0.49770171    -0.14400
C639        C  0.79086762  0.28884174  0.81134716    -0.12910
C640        C  0.79685604  0.25237628  0.77936977     0.09240
C641        C  0.83709625  0.21924031  0.78313671    -0.12910
C642        C  0.86061706  0.21325034  0.82159381    -0.12910
C643        C  0.84720705  0.24321671  0.85600652     0.09240
C644        C  0.81400704  0.28281350  0.84998604    -0.12910
H645        H  0.76313925  0.31824038  0.80816617     0.13220
H646        H  0.85163880  0.19899184  0.75691463     0.13220
H647        H  0.89069932  0.18615425  0.82417283     0.13220
H648        H  0.80677263  0.30947502  0.87471896     0.13220
C649        C  0.66794918  0.27373771  0.78157985    -0.12910
C650        C  0.70778659  0.24009810  0.77830359     0.09240
C651        C  0.71332919  0.20366058  0.81026305    -0.12910
C652        C  0.69067713  0.21041674  0.84870845    -0.12910
C653        C  0.65821977  0.25064937  0.85444720     0.09240
C654        C  0.64478574  0.28039400  0.81983367    -0.12910
H655        H  0.65363628  0.29405076  0.75519135     0.13220
H656        H  0.74073405  0.17394416  0.80740917     0.13220
H657        H  0.69790061  0.18395315  0.87358349     0.13220
H658        H  0.61525113  0.30807735  0.82213471     0.13220
C659        C  0.79722744  0.28322720  0.68722470    -0.12910
C660        C  0.76028324  0.29023304  0.71834665     0.09240
C661        C  0.72779978  0.33089875  0.71372126    -0.12910
C662        C  0.72292473  0.35386624  0.67505712    -0.12910
C663        C  0.75342020  0.33950137  0.64141681     0.09240
C664        C  0.79237094  0.30589569  0.64841789    -0.12910
H665        H  0.82604198  0.25502675  0.69109567     0.13220
H666        H  0.70715952  0.34609976  0.73939586     0.13220
H667        H  0.69628385  0.38426431  0.67170765     0.13220
H668        H  0.81935001  0.29790992  0.62431056     0.13220
C669        C  0.77813368  0.16115429  0.71454315    -0.12910
C670        C  0.74526168  0.20156478  0.71839663     0.09240
C671        C  0.70869202  0.20806765  0.68644264    -0.12910
C672        C  0.71436957  0.18528887  0.64773084    -0.12910
C673        C  0.75386274  0.15215623  0.64157953     0.09240
C674        C  0.78399302  0.13825015  0.67594304    -0.12910
H675        H  0.79848555  0.14624210  0.74071909     0.13220
H676        H  0.67961032  0.23606561  0.68965234     0.13220
H677        H  0.68764783  0.19287677  0.62300615     0.13220
H678        H  0.81109242  0.10820797  0.67320374     0.13220
C679        C  0.75252986  0.74609640  0.74863849    -0.02050
O680        O  0.61100085  0.57990038  0.49896484    -0.74860
O681        O  0.67249060  0.63986056  0.49861692    -0.53760
C682        C  0.62620351  0.62585373  0.49887307     0.78870
O683        O  0.75257816  0.91757165  0.61434881    -0.59460
O684        O  0.75554328  0.85368012  0.56717226    -0.52490
C685        C  0.75367577  0.87145847  0.60469952     0.70890
O686        O  0.75732741  0.57406134  0.61438016    -0.74010
O687        O  0.75113325  0.63758632  0.56727360    -0.54580
C688        C  0.75449852  0.62007152  0.60478674     0.76890
O689        O  0.61156772  0.91037987  0.49743921    -0.59160
O690        O  0.67351718  0.85085188  0.49793703    -0.52280
C691        C  0.62708407  0.86453686  0.49761785     0.73480
Zr692      Zr  0.64758181  0.99521942  0.49799846     2.54710
O693        O  0.58733751  0.99440193  0.55440402    -0.79720
O694        O  0.58606838  0.99452361  0.44166562    -0.93140
Zr695      Zr  0.75417208  0.99577938  0.58168806     2.64940
O696        O  0.68737669  0.50063975  0.63269586    -0.98100
O697        O  0.82023865  0.99228214  0.63423608    -0.80160
O698        O  0.69990813  0.54545668  0.54115890    -0.83510
O699        O  0.70031260  0.94560887  0.54103161    -2.18220
O700        O  0.74814514  0.91494122  0.38264112    -0.66900
O701        O  0.75584651  0.85246861  0.43083779    -0.51470
C702        C  0.75199084  0.86909185  0.39316813     0.71860
O703        O  0.89500167  0.58071047  0.49697570    -0.59810
O704        O  0.83310109  0.64024824  0.49843322    -0.51790
C705        C  0.87951117  0.62655787  0.49762006     0.73670
O706        O  0.89564031  0.91125507  0.49871000    -0.71210
O707        O  0.83416844  0.85128593  0.49918826    -0.49880
C708        C  0.88045102  0.86530058  0.49904700     0.75050
O709        O  0.75744115  0.57530321  0.38259236    -0.66540
O710        O  0.75223729  0.63819987  0.43083365    -0.53730
C711        C  0.75555568  0.62130159  0.39319998     0.73430
Zr712      Zr  0.75218566  0.99530453  0.41400630     2.77540
O713        O  0.81693734  0.49311358  0.36106913    -0.97290
O714        O  0.68411726  0.99907248  0.36330827    -0.78110
Zr715      Zr  0.85895709  0.99588452  0.49792898     2.70070
O716        O  0.91868009  0.99488303  0.44115189    -0.79350
O717        O  0.92052922  0.99794786  0.55416798    -0.98440
Zr718      Zr  0.75278710  0.59539056  0.49856218     2.21500
Zr719      Zr  0.75385422  0.89569954  0.49855671     2.11130
O720        O  0.80624230  0.94578332  0.45516856    -2.47130
O721        O  0.80562066  0.54549497  0.45538291    -0.79150
O722        O  0.69982300  0.94509353  0.45537655    -0.71340
O723        O  0.80718315  0.54573715  0.54099860    -2.32300
O724        O  0.69926057  0.54531866  0.45514744    -2.28510
O725        O  0.80767113  0.94581433  0.54119183    -0.73100
H726        H  0.68000196  0.92480946  0.55874718     0.78890
H727        H  0.82786895  0.56664596  0.55868606     0.79980
H728        H  0.82657428  0.92487324  0.43748245     0.82210
H729        H  0.67878218  0.56620899  0.43735807     0.79810
H730        H  0.84688397  0.51452208  0.62363299     0.42850
H731        H  0.91248058  0.96848197  0.57158301     0.41820
H732        H  0.90308731  0.51600921  0.41931398     0.41500
H733        H  0.83633146  0.96219981  0.36669889     0.39430
H734        H  0.65923733  0.97453048  0.37341155     0.42560
H735        H  0.59324477  0.52503292  0.42525137     0.37350
H736        H  0.59996044  0.51981243  0.57441313     0.43460
H737        H  0.66587243  0.97114445  0.62698942     0.39880
H738        H  0.79877168  0.98607988  0.33471155     0.44800
H739        H  0.55385356  0.00176001  0.45543750     0.43520
H740        H  0.70385670  0.99308028  0.65967633     0.43660
H741        H  0.95254317  0.98915281  0.54069190     0.44010
C742        C  0.97764238  0.74570687  0.49834899     0.01000
C743        C  0.52895654  0.74540929  0.49832612     0.01000
C744        C  0.75839900  0.74498539  0.24837508    -0.02050
C745        C  0.72969441  0.99659196  0.99787491     0.01000
C746        C  0.78085635  0.99615503  0.99810253     0.01000
O747        O  0.58124831  0.75971661  0.88262529    -0.74860
O748        O  0.64499709  0.74493462  0.92848862    -0.53760
C749        C  0.62704716  0.75269669  0.89148989     0.78870
O750        O  0.92020291  0.88787477  0.99984312    -0.59460
O751        O  0.86005480  0.82656696  0.99960321    -0.52490
C752        C  0.87428360  0.87299382  0.99975840     0.70890
O753        O  0.58921095  0.88861071  0.99800854    -0.74010
O754        O  0.64980013  0.82774546  0.99677320    -0.54580
C755        C  0.63524037  0.87405232  0.99726047     0.76890
O756        O  0.92546831  0.73934241  0.88305028    -0.59160
O757        O  0.86260673  0.74703844  0.93015587    -0.52280
C758        C  0.87966836  0.74254614  0.89269989     0.73480
Zr759      Zr  0.50407902  0.74671337  0.91496576     2.54710
O760        O  0.49434780  0.81151774  0.86225733    -0.79720
O761        O  0.01047403  0.67962603  0.86355831    -0.93140
Zr762      Zr  0.50483004  0.85210948  0.99905382     2.64680
O763        O  0.50429245  0.91354016  0.94304514    -0.98100
O764        O  0.00506615  0.91342995  0.05536013    -0.80160
O765        O  0.55438198  0.80035807  0.95571555    -0.83510
O766        O  0.95445836  0.79988021  0.95601762    -2.18220
O767        O  0.92133990  0.60418136  0.99708375    -0.66900
O768        O  0.86074880  0.66503380  0.99774287    -0.51470
C769        C  0.87529875  0.61872697  0.99729486     0.71860
O770        O  0.58722639  0.74132972  0.11372055    -0.59810
O771        O  0.64908874  0.74814209  0.06538077    -0.51790
C772        C  0.63289912  0.74429775  0.10306128     0.73670
O773        O  0.92800320  0.74890700  0.11489170    -0.71210
O774        O  0.86430982  0.74391057  0.06717066    -0.49880
C775        C  0.88196797  0.74649089  0.10473578     0.75050
O776        O  0.59029757  0.60481724  0.99851225    -0.66540
O777        O  0.65046410  0.66612278  0.99830505    -0.53730
C778        C  0.63621976  0.61969951  0.99846595     0.73430
Zr779      Zr  0.50576246  0.64071717  0.99792582     2.77540
O780        O  0.50683831  0.57846721  0.05329357    -0.97290
O781        O  0.50603816  0.58061374  0.94075918    -0.78110
Zr782      Zr  0.50694923  0.74615448  0.08243738     2.70070
O783        O  0.50435846  0.67985094  0.13433241    -0.79350
O784        O  0.51221430  0.81387578  0.13330059    -0.98440
Zr785      Zr  0.60537605  0.74679422  0.99769094     2.21500
Zr786      Zr  0.90525502  0.74596480  0.99875683     2.11130
O787        O  0.95651731  0.69274256  0.04130174    -2.47130
O788        O  0.55628277  0.69315736  0.04070948    -0.79150
O789        O  0.95480472  0.69289554  0.95560732    -0.71340
O790        O  0.55583772  0.79981359  0.04128852    -2.32300
O791        O  0.55497780  0.69305016  0.95492971    -2.28510
O792        O  0.95575043  0.79934187  0.04187535    -0.73100
H793        H  0.93341069  0.82019199  0.93822173     0.78890
H794        H  0.57689763  0.82023903  0.05906479     0.79980
H795        H  0.93617352  0.67208175  0.05910659     0.82210
H796        H  0.57555466  0.67276529  0.93694841     0.79810
H797        H  0.53224280  0.90246846  0.07437041     0.42850
H798        H  0.98340001  0.83590020  0.12674915     0.41820
H799        H  0.52502599  0.65258514  0.12249993     0.41500
H800        H  0.97658508  0.58554454  0.06987496     0.39430
H801        H  0.98377040  0.59560989  0.91938718     0.42560
H802        H  0.54537276  0.66740004  0.86546448     0.37350
H803        H  0.51259965  0.84082986  0.87372619     0.43460
H804        H  0.97286227  0.90714478  0.92740937     0.39880
H805        H  0.49943766  0.54631151  0.03903004     0.44800
H806        H  0.50858078  0.69693708  0.83635330     0.43520
H807        H  0.49869064  0.94608351  0.95717833     0.43660
H808        H  0.50355092  0.79802468  0.16013752     0.44010
C809        C  0.81010789  0.54275528  0.99768496    -0.12840
C810        C  0.83764474  0.57920687  0.99733511    -0.14400
C811        C  0.70044147  0.94999692  0.99753134    -0.12840
C812        C  0.67289062  0.91355760  0.99723495    -0.14400
C813        C  0.83647663  0.91234658  0.99944883    -0.12840
C814        C  0.80931062  0.94906901  0.99881774    -0.14400
C815        C  0.67402546  0.58035749  0.99834584    -0.12840
C816        C  0.70122653  0.54366469  0.99806411    -0.14400
C817        C  0.83049478  0.78338868  0.20774215    -0.12910
C818        C  0.80325440  0.74034269  0.21903216     0.09240
C819        C  0.80484246  0.69817472  0.19214732    -0.12910
C820        C  0.82670299  0.70151350  0.15298559    -0.12910
C821        C  0.84937273  0.74618276  0.14069763     0.09240
C822        C  0.85328184  0.78607151  0.16904401    -0.12910
H823        H  0.83053369  0.81684072  0.22681892     0.13220
H824        H  0.78458330  0.66429254  0.19976491     0.13220
H825        H  0.82653681  0.66911822  0.13255786     0.13220
H826        H  0.87374076  0.81970214  0.16090063     0.13220
C827        C  0.69146540  0.78783017  0.15052848    -0.12910
C828        C  0.66698336  0.74382463  0.13853688     0.09240
C829        C  0.66333433  0.70400302  0.16675380    -0.12910
C830        C  0.68722936  0.70634114  0.20531072    -0.12910
C831        C  0.71500712  0.74915310  0.21684290     0.09240
C832        C  0.71433458  0.79090530  0.18962271    -0.12910
H833        H  0.69187842  0.82009283  0.13009066     0.13220
H834        H  0.64196777  0.67076658  0.15869823     0.13220
H835        H  0.68691467  0.67298127  0.22435156     0.13220
H836        H  0.73519705  0.82452307  0.19731687     0.13220
C837        C  0.71370334  0.83806991  0.32866442    -0.12910
C838        C  0.75321027  0.83550332  0.35749782     0.09240
C839        C  0.79844375  0.81368642  0.34577720    -0.12910
C840        C  0.80294640  0.79171695  0.30653357    -0.12910
C841        C  0.76159023  0.78953142  0.27873741     0.09240
C842        C  0.71769784  0.81550673  0.28976546    -0.12910
H843        H  0.67949921  0.85767148  0.33643740     0.13220
H844        H  0.83046104  0.81445828  0.36666500     0.13220
H845        H  0.83734676  0.77223422  0.29933411     0.13220
H846        H  0.68468461  0.81485757  0.27011346     0.13220
C847        C  0.79807927  0.65222055  0.33121631    -0.12910
C848        C  0.75680476  0.65490062  0.35771916     0.09240
C849        C  0.71253421  0.67701585  0.34361486    -0.12910
C850        C  0.71060752  0.69907807  0.30434292    -0.12910
C851        C  0.75354697  0.70091800  0.27883964     0.09240
C852        C  0.79665762  0.67493402  0.29228190    -0.12910
H853        H  0.83162437  0.63242296  0.34084106     0.13220
H854        H  0.67928198  0.67642157  0.36266302     0.13220
H855        H  0.67678380  0.71871309  0.29533741     0.13220
H856        H  0.83081971  0.67550630  0.27450847     0.13220
C857        C  0.91849845  0.82639512  0.49900370    -0.12840
C858        C  0.94835374  0.79197206  0.49870486    -0.14400
C859        C  0.55826266  0.69915384  0.49858453    -0.12840
C860        C  0.58815065  0.66475548  0.49882625    -0.14400
C861        C  0.55891692  0.79130564  0.49802245    -0.12840
C862        C  0.58913656  0.82545302  0.49772025    -0.14400
C863        C  0.94767526  0.69980585  0.49800540    -0.12840
C864        C  0.91746233  0.66564343  0.49770166    -0.14400
C865        C  0.79086760  0.78884194  0.81134710    -0.12910
C866        C  0.79685616  0.75237649  0.77936972     0.09240
C867        C  0.83709646  0.71924064  0.78313669    -0.12910
C868        C  0.86061719  0.71325069  0.82159382    -0.12910
C869        C  0.84720704  0.74321703  0.85600653     0.09240
C870        C  0.81400697  0.78281375  0.84998601    -0.12910
H871        H  0.76313915  0.81824051  0.80816608     0.13220
H872        H  0.85163912  0.69899223  0.75691462     0.13220
H873        H  0.89069951  0.68615467  0.82417288     0.13220
H874        H  0.80677246  0.80947525  0.87471893     0.13220
C875        C  0.66794931  0.77373736  0.78158001    -0.12910
C876        C  0.70778681  0.74009787  0.77830360     0.09240
C877        C  0.71332963  0.70366028  0.81026298    -0.12910
C878        C  0.69067764  0.71041624  0.84870844    -0.12910
C879        C  0.65822017  0.75064874  0.85444732     0.09240
C880        C  0.64478595  0.78039344  0.81983389    -0.12910
H881        H  0.65363625  0.79405041  0.75519158     0.13220
H882        H  0.74073457  0.67394396  0.80740900     0.13220
H883        H  0.69790122  0.68395258  0.87358340     0.13220
H884        H  0.61525120  0.80807662  0.82213505     0.13220
C885        C  0.79722743  0.78322740  0.68722470    -0.12910
C886        C  0.76028316  0.79023308  0.71834662     0.09240
C887        C  0.72779948  0.83089861  0.71372117    -0.12910
C888        C  0.72292438  0.85386606  0.67505702    -0.12910
C889        C  0.75341998  0.83950132  0.64141675     0.09240
C890        C  0.79237087  0.80589583  0.64841789    -0.12910
H891        H  0.82604211  0.75502710  0.69109571     0.13220
H892        H  0.70715912  0.84609954  0.73939574     0.13220
H893        H  0.69628337  0.88426401  0.67170750     0.13220
H894        H  0.81935001  0.79791019  0.62431059     0.13220
C895        C  0.77813416  0.66115443  0.71454305    -0.12910
C896        C  0.74526198  0.70156477  0.71839660     0.09240
C897        C  0.70869221  0.70806749  0.68644267    -0.12910
C898        C  0.71436976  0.68528874  0.64773086    -0.12910
C899        C  0.75386306  0.65215626  0.64157948     0.09240
C900        C  0.78399349  0.63825031  0.67594293    -0.12910
H901        H  0.79848615  0.64624231  0.74071895     0.13220
H902        H  0.67961039  0.73606531  0.68965243     0.13220
H903        H  0.68764792  0.69287652  0.62300622     0.13220
H904        H  0.81109299  0.60820823  0.67320358     0.13220
loop_ 
_geom_bond_atom_site_label_1 
_geom_bond_atom_site_label_2 
_geom_bond_distance 
_geom_bond_site_symmetry_2 
_ccdc_geom_bond_type 
C1          C188   1.545       .  S
C1          C198   1.544       .  S
C1          C208   1.544       .  S
C1          C218   1.544       .  S
O2            C4   1.291       .  A
O2         Zr240   2.461   1_545  S
O3            C4   1.293       .  A
O3          Zr40   2.452       .  S
C4          C182   1.453       .  S
O5            C7   1.268       .  A
O5          Zr17   2.337       .  S
O6            C7   1.296       .  A
O6          Zr41   2.475       .  S
C7          C211   1.457       .  S
O8           C10   1.268       .  A
O8         Zr243   2.335   1_545  S
O9           C10   1.296       .  A
O9          Zr40   2.476       .  S
C10         C221   1.458       .  S
O11          C13   1.291       .  A
O11         Zr14   2.458       .  S
O12          C13   1.294       .  A
O12         Zr41   2.458       .  S
C13         C184   1.454       .  S
Zr14        O228   2.461       .  S
Zr14         O15   2.434       .  S
Zr14         O16   2.435       .  S
Zr14         O21   2.372       .  S
Zr14         O44   2.374       .  S
Zr14        O246   2.373       .  S
Zr14        O272   2.372       .  S
O15         H284   0.990       .  S
O16          H61   0.990       .  S
O16         H283   0.990       .  S
Zr17        O234   2.335       .  S
Zr17         O19   2.435       .  S
Zr17        O244   2.437       .  S
Zr17         O21   2.351       .  S
Zr17         O47   2.353       .  S
Zr17        O246   2.352       .  S
Zr17        O271   2.351       .  S
O18        Zr243   2.437   1_545  S
O18         H285   0.990   1_545  S
O18         H288   0.990   1_545  S
O19         H278   0.990       .  S
O20         Zr40   2.384       .  S
O20        Zr240   2.373   1_545  S
O20        Zr243   2.352   1_545  S
O21         Zr41   2.389       .  S
O21          H48   0.966       .  S
O22          C24   1.273       .  A
O22         Zr34   2.368       .  S
O23          C24   1.293       .  A
O23         Zr41   2.461       .  S
C24         C160   1.453       .  S
O25          C27   1.291       .  A
O25        Zr263   2.459   1_545  S
O26          C27   1.294       .  A
O26         Zr40   2.458       .  S
C27         C186   1.454       .  S
O28          C30   1.291       .  A
O28         Zr37   2.460       .  S
O29          C30   1.293       .  A
O29         Zr41   2.452       .  S
C30         C179   1.453       .  S
O31          C33   1.273       .  A
O31        Zr260   2.366   1_545  S
O32          C33   1.293       .  A
O32         Zr40   2.459       .  S
C33         C170   1.452       .  S
Zr34        O257   2.366       .  S
Zr34         O36   2.435       .  S
Zr34        O261   2.437       .  S
Zr34         O42   2.358       .  S
Zr34         O44   2.357       .  S
Zr34        O269   2.358       .  S
Zr34        O272   2.356       .  S
O35        Zr260   2.437       .  S
O35         H281   0.990       .  S
O35         H286   0.990       .  S
O36          H56   0.990       .  S
Zr37        O251   2.459       .  S
Zr37         O38   2.434       .  S
Zr37         O39   2.435       .  S
Zr37         O42   2.370       .  S
Zr37         O47   2.373       .  S
Zr37        O269   2.372       .  S
Zr37        O271   2.371       .  S
O38         H280   0.990       .  S
O39          H53   0.990       .  S
O39          H63   0.990       .  S
Zr40         O43   2.390       .  S
Zr40         O45   2.388       .  S
Zr40         O46   2.394       .  S
Zr41         O42   2.393       .  S
Zr41         O44   2.392       .  S
Zr41         O47   2.385       .  S
O42          H50   0.966       .  S
O43        Zr260   2.358   1_545  S
O43        Zr263   2.372   1_545  S
O45        Zr243   2.351   1_545  S
O45        Zr263   2.371   1_545  S
O45          H49   0.966       .  S
O46        Zr240   2.372   1_545  S
O46        Zr260   2.356   1_545  S
O46          H51   0.966       .  S
H52         O245   0.990   1_545  S
H54         O264   0.990   1_545  S
H55         O261   0.990       .  S
H57         O242   0.990   1_545  S
H58         O241   0.990   1_545  S
H59         O244   0.990       .  S
H60         O261   0.990       .  S
H62         O244   0.990       .  S
C64         C180   1.461       .  S
C64         C185   1.463       .  S
C64         C517   1.372       .  D
C65         C181   1.461       .  S
C65         C183   1.463       .  S
C65         C516   1.372   1_455  D
C66         C140   1.536       .  S
C66         C153   1.538       .  S
C66         C163   1.537       .  S
C66         C173   1.537       .  S
C67         C133   1.468       .  S
C67         C364   1.468       .  S
C67          C68   1.368       .  D
C68         C136   1.468       .  S
C68         C357   1.468       .  S
O69          C71   1.269       .  A
O69         Zr81   2.344       .  S
O70          C71   1.295       .  A
O70        Zr107   2.471       .  S
C71         C201   1.459       .  S
O72          C74   1.290       .  A
O72        Zr536   2.456       .  S
O73          C74   1.295       .  A
O73        Zr108   2.466       .  S
C74         C135   1.457       .  S
O75          C77   1.291       .  A
O75         Zr84   2.457       .  S
O76          C77   1.295       .  A
O76        Zr107   2.464       .  S
C77         C134   1.457       .  S
O78          C80   1.268       .  A
O78        Zr533   2.339       .  S
O79          C80   1.296       .  A
O79        Zr108   2.473       .  S
C80         C191   1.458       .  S
Zr81        O530   2.339   1_455  S
Zr81         O82   2.435   1_455  S
Zr81        O535   2.439       .  S
Zr81         O87   2.352       .  S
Zr81        O113   2.351       .  S
Zr81        O540   2.351   1_455  S
Zr81        O563   2.353   1_455  S
O82         H125   0.990   1_655  S
O83        Zr533   2.439       .  S
O83         H576   0.990       .  S
O83         H580   0.990       .  S
Zr84        O524   2.456   1_455  S
Zr84         O85   2.436       .  S
Zr84        O538   2.435   1_556  S
Zr84         O87   2.370       .  S
Zr84        O112   2.371   1_556  S
Zr84        O540   2.372   1_455  S
Zr84        O566   2.373   1_456  S
O85         H129   0.990   1_455  S
O85         H578   0.990   1_455  S
O86        Zr536   2.435   1_554  S
O86         H571   0.990       .  S
O87        Zr107   2.387       .  S
O88        Zr108   2.392       .  S
O88        Zr533   2.351       .  S
O88        Zr536   2.372       .  S
O88         H115   0.966       .  S
O89          C91   1.291       .  A
O89        Zr553   2.458       .  S
O90          C91   1.295       .  A
O90        Zr108   2.464       .  S
C91         C132   1.457       .  S
O92          C94   1.273       .  A
O92        Zr104   2.366       .  S
O93          C94   1.293       .  A
O93        Zr107   2.460   1_554  S
C94         C150   1.453       .  S
O95          C97   1.272       .  A
O95        Zr556   2.363       .  S
O96          C97   1.294       .  A
O96        Zr108   2.464   1_554  S
C97         C143   1.453       .  S
O98         C100   1.290       .  A
O98        Zr101   2.454       .  S
O99         C100   1.295       .  A
O99        Zr107   2.466       .  S
C100        C137   1.457       .  S
Zr101       O541   2.458   1_455  S
Zr101       O102   2.436   1_556  S
Zr101       O103   2.434       .  S
Zr101       O110   2.372   1_556  S
Zr101       O113   2.372       .  S
Zr101       O561   2.371   1_456  S
Zr101       O563   2.370   1_455  S
O102        H127   0.990   1_455  S
O102        H574   0.990   1_455  S
O103        H575   0.990   1_455  S
Zr104       O547   2.363   1_455  S
Zr104       O105   2.434       .  S
Zr104       O106   2.436       .  S
Zr104       O110   2.357       .  S
Zr104       O112   2.354       .  S
Zr104       O561   2.357   1_455  S
Zr104       O566   2.358   1_455  S
O105        H121   0.990       .  S
O106        H130   0.990       .  S
O106        H572   0.990   1_455  S
Zr107       O110   2.391   1_556  S
Zr107       O112   2.395   1_556  S
Zr107       O113   2.391       .  S
Zr108       O109   2.396   1_556  S
Zr108       O111   2.387       .  S
Zr108       O114   2.393   1_556  S
O109       Zr553   2.371   1_554  S
O109       Zr556   2.357       .  S
O109        H117   0.966       .  S
O111       Zr533   2.353       .  S
O111       Zr553   2.370       .  S
O112        H116   0.966       .  S
O113        H118   0.966       .  S
O114       Zr536   2.373   1_554  S
O114       Zr556   2.358       .  S
H119        O538   0.990       .  S
H120        O558   0.990       .  S
H122        O554   0.990       .  S
H123        O555   0.990       .  S
H124        O535   0.990       .  S
H126        O537   0.990       .  S
H128        O535   0.990       .  S
C131        C294   1.468   1_545  S
C131        C132   1.219       .  T
C133        C134   1.219       .  T
C135        C136   1.219       .  T
C137        C138   1.219       .  T
C138        C293   1.468   1_545  S
C139        C140   1.409       .  A
C139        C144   1.391       .  A
C139        H145   1.081       .  S
C140        C141   1.417       .  A
C141        C142   1.395       .  A
C141        H146   1.083       .  S
C142        C143   1.396       .  A
C142        H147   1.083       .  S
C143        C144   1.402       .  A
C144        H148   1.084       .  S
C149        C150   1.395       .  A
C149        C154   1.395       .  A
C149        H155   1.083       .  S
C150        C151   1.402       .  A
C151        C152   1.390       .  A
C151        H156   1.084       .  S
C152        C153   1.409       .  A
C152        H157   1.081       .  S
C153        C154   1.417       .  A
C154        H158   1.083       .  S
C159        C160   1.401       .  A
C159        C164   1.391       .  A
C159        H165   1.084       .  S
C160        C161   1.396       .  A
C161        C162   1.395       .  A
C161        H166   1.083       .  S
C162        C163   1.417       .  A
C162        H167   1.083       .  S
C163        C164   1.410       .  A
C164        H168   1.081       .  S
C169        C170   1.401       .  A
C169        C174   1.391       .  A
C169        H175   1.084       .  S
C170        C171   1.395       .  A
C171        C172   1.394       .  A
C171        H176   1.083       .  S
C172        C173   1.417       .  A
C172        H177   1.083       .  S
C173        C174   1.410       .  A
C174        H178   1.081       .  S
C179        C180   1.216       .  T
C181        C182   1.216       .  T
C183        C184   1.217       .  T
C185        C186   1.217       .  T
C187        C188   1.423       .  A
C187        C192   1.392       .  A
C187        H193   1.083       .  S
C188        C189   1.397       .  A
C189        C190   1.391       .  A
C189        H194   1.075       .  S
C190        C191   1.411       .  A
C190        H195   1.084       .  S
C191        C192   1.392       .  A
C192        H196   1.083       .  S
C197        C198   1.397       .  A
C197        C202   1.392       .  A
C197        H203   1.075       .  S
C198        C199   1.422       .  A
C199        C200   1.391       .  A
C199        H204   1.083       .  S
C200        C201   1.393       .  A
C200        H205   1.083       .  S
C201        C202   1.411       .  A
C202        H206   1.084       .  S
C207        C208   1.423       .  A
C207        C212   1.392       .  A
C207        H213   1.083       .  S
C208        C209   1.397       .  A
C209        C210   1.391       .  A
C209        H214   1.075       .  S
C210        C211   1.411       .  A
C210        H215   1.084       .  S
C211        C212   1.391       .  A
C212        H216   1.083       .  S
C217        C218   1.396       .  A
C217        C222   1.391       .  A
C217        H223   1.075       .  S
C218        C219   1.423       .  A
C219        C220   1.392       .  A
C219        H224   1.083       .  S
C220        C221   1.392       .  A
C220        H225   1.083       .  S
C221        C222   1.412       .  A
C222        H226   1.084       .  S
C227        C414   1.545       .  S
C227        C424   1.544       .  S
C227        C434   1.544       .  S
C227        C444   1.544       .  S
O228        C230   1.291       .  A
O229        C230   1.293       .  A
O229       Zr266   2.452       .  S
C230        C408   1.453       .  S
O231        C233   1.268       .  A
O231       Zr243   2.337       .  S
O232        C233   1.296       .  A
O232       Zr267   2.475       .  S
C233        C437   1.457       .  S
O234        C236   1.268       .  A
O235        C236   1.296       .  A
O235       Zr266   2.476       .  S
C236        C447   1.458       .  S
O237        C239   1.291       .  A
O237       Zr240   2.458       .  S
O238        C239   1.294       .  A
O238       Zr267   2.458       .  S
C239        C410   1.454       .  S
Zr240       O241   2.434       .  S
Zr240       O242   2.435       .  S
Zr240       O247   2.372       .  S
Zr240       O270   2.374       .  S
O242        H287   0.990   1_565  S
Zr243       O245   2.435       .  S
Zr243       O247   2.351       .  S
Zr243       O273   2.353       .  S
O246       Zr266   2.384       .  S
O247       Zr267   2.389       .  S
O247        H274   0.966       .  S
O248        C250   1.273       .  A
O248       Zr260   2.368       .  S
O249        C250   1.293       .  A
O249       Zr267   2.461       .  S
C250        C386   1.453       .  S
O251        C253   1.291       .  A
O252        C253   1.294       .  A
O252       Zr266   2.458       .  S
C253        C412   1.454       .  S
O254        C256   1.291       .  A
O254       Zr263   2.460       .  S
O255        C256   1.293       .  A
O255       Zr267   2.452       .  S
C256        C405   1.453       .  S
O257        C259   1.273       .  A
O258        C259   1.293       .  A
O258       Zr266   2.459       .  S
C259        C396   1.452       .  S
Zr260       O262   2.435       .  S
Zr260       O268   2.358       .  S
Zr260       O270   2.357       .  S
O262        H282   0.990       .  S
Zr263       O264   2.434       .  S
Zr263       O265   2.435       .  S
Zr263       O268   2.370       .  S
Zr263       O273   2.373       .  S
O265        H279   0.990       .  S
O265        H289   0.990       .  S
Zr266       O269   2.390       .  S
Zr266       O271   2.388       .  S
Zr266       O272   2.394       .  S
Zr267       O268   2.393       .  S
Zr267       O270   2.392       .  S
Zr267       O273   2.385       .  S
O268        H276   0.966       .  S
O271        H275   0.966       .  S
O272        H277   0.966       .  S
C290        C406   1.461       .  S
C290        C411   1.463       .  S
C290        C743   1.372       .  D
C291        C407   1.461       .  S
C291        C409   1.463       .  S
C291        C742   1.372   1_455  D
C292        C366   1.536       .  S
C292        C379   1.538       .  S
C292        C389   1.537       .  S
C292        C399   1.537       .  S
C293        C359   1.468       .  S
C293        C294   1.368       .  D
C294        C362   1.468       .  S
O295        C297   1.269       .  A
O295       Zr307   2.344       .  S
O296        C297   1.295       .  A
O296       Zr333   2.471       .  S
C297        C427   1.459       .  S
O298        C300   1.290       .  A
O298       Zr762   2.456       .  S
O299        C300   1.295       .  A
O299       Zr334   2.466       .  S
C300        C361   1.457       .  S
O301        C303   1.291       .  A
O301       Zr310   2.457       .  S
O302        C303   1.295       .  A
O302       Zr333   2.464       .  S
C303        C360   1.457       .  S
O304        C306   1.268       .  A
O304       Zr759   2.339       .  S
O305        C306   1.296       .  A
O305       Zr334   2.473       .  S
C306        C417   1.458       .  S
Zr307       O756   2.339   1_455  S
Zr307       O308   2.435   1_455  S
Zr307       O761   2.439       .  S
Zr307       O313   2.352       .  S
Zr307       O766   2.351   1_455  S
Zr307       O789   2.353   1_455  S
Zr307       O339   2.351       .  S
O308        H351   0.990   1_655  S
O309       Zr759   2.439       .  S
O309        H802   0.990       .  S
O309        H806   0.990       .  S
Zr310       O750   2.456   1_455  S
Zr310       O311   2.436       .  S
Zr310       O764   2.435   1_556  S
Zr310       O766   2.372   1_455  S
Zr310       O313   2.370       .  S
Zr310       O338   2.371   1_556  S
Zr310       O792   2.373   1_456  S
O311        H804   0.990   1_455  S
O311        H355   0.990   1_455  S
O312       Zr762   2.435   1_554  S
O312        H797   0.990       .  S
O313       Zr333   2.387       .  S
O314       Zr759   2.351       .  S
O314       Zr762   2.372       .  S
O314       Zr334   2.392       .  S
O314        H341   0.966       .  S
O315        C317   1.291       .  A
O315       Zr779   2.458       .  S
O316        C317   1.295       .  A
O316       Zr334   2.464       .  S
C317        C358   1.457       .  S
O318        C320   1.273       .  A
O318       Zr330   2.366       .  S
O319        C320   1.293       .  A
O319       Zr333   2.460   1_554  S
C320        C376   1.453       .  S
O321        C323   1.272       .  A
O321       Zr782   2.363       .  S
O322        C323   1.294       .  A
O322       Zr334   2.464   1_554  S
C323        C369   1.453       .  S
O324        C326   1.290       .  A
O324       Zr327   2.454       .  S
O325        C326   1.295       .  A
O325       Zr333   2.466       .  S
C326        C363   1.457       .  S
Zr327       O767   2.458   1_455  S
Zr327       O328   2.436   1_556  S
Zr327       O329   2.434       .  S
Zr327       O787   2.371   1_456  S
Zr327       O336   2.372   1_556  S
Zr327       O339   2.372       .  S
Zr327       O789   2.370   1_455  S
O328        H800   0.990   1_455  S
O328        H353   0.990   1_455  S
O329        H801   0.990   1_455  S
Zr330       O773   2.363   1_455  S
Zr330       O331   2.434       .  S
Zr330       O332   2.436       .  S
Zr330       O336   2.357       .  S
Zr330       O787   2.357   1_455  S
Zr330       O792   2.358   1_455  S
Zr330       O338   2.354       .  S
O331        H347   0.990       .  S
O332        H798   0.990   1_455  S
O332        H356   0.990       .  S
Zr333       O336   2.391   1_556  S
Zr333       O338   2.395   1_556  S
Zr333       O339   2.391       .  S
Zr334       O335   2.396   1_556  S
Zr334       O337   2.387       .  S
Zr334       O340   2.393   1_556  S
O335       Zr779   2.371   1_554  S
O335       Zr782   2.357       .  S
O335        H343   0.966       .  S
O337       Zr759   2.353       .  S
O337       Zr779   2.370       .  S
O338        H342   0.966       .  S
O339        H344   0.966       .  S
O340       Zr762   2.373   1_554  S
O340       Zr782   2.358       .  S
H345        O764   0.990       .  S
H346        O784   0.990       .  S
H348        O780   0.990       .  S
H349        O781   0.990       .  S
H350        O761   0.990       .  S
H352        O763   0.990       .  S
H354        O761   0.990       .  S
C357        C358   1.219       .  T
C359        C360   1.219       .  T
C361        C362   1.219       .  T
C363        C364   1.219       .  T
C365        C366   1.409       .  A
C365        C370   1.391       .  A
C365        H371   1.081       .  S
C366        C367   1.417       .  A
C367        C368   1.395       .  A
C367        H372   1.083       .  S
C368        C369   1.396       .  A
C368        H373   1.083       .  S
C369        C370   1.402       .  A
C370        H374   1.084       .  S
C375        C376   1.395       .  A
C375        C380   1.395       .  A
C375        H381   1.083       .  S
C376        C377   1.402       .  A
C377        C378   1.390       .  A
C377        H382   1.084       .  S
C378        C379   1.409       .  A
C378        H383   1.081       .  S
C379        C380   1.417       .  A
C380        H384   1.083       .  S
C385        C386   1.401       .  A
C385        C390   1.391       .  A
C385        H391   1.084       .  S
C386        C387   1.396       .  A
C387        C388   1.395       .  A
C387        H392   1.083       .  S
C388        C389   1.417       .  A
C388        H393   1.083       .  S
C389        C390   1.410       .  A
C390        H394   1.081       .  S
C395        C396   1.401       .  A
C395        C400   1.391       .  A
C395        H401   1.084       .  S
C396        C397   1.395       .  A
C397        C398   1.394       .  A
C397        H402   1.083       .  S
C398        C399   1.417       .  A
C398        H403   1.083       .  S
C399        C400   1.410       .  A
C400        H404   1.081       .  S
C405        C406   1.216       .  T
C407        C408   1.216       .  T
C409        C410   1.217       .  T
C411        C412   1.217       .  T
C413        C414   1.423       .  A
C413        C418   1.392       .  A
C413        H419   1.083       .  S
C414        C415   1.397       .  A
C415        C416   1.391       .  A
C415        H420   1.075       .  S
C416        C417   1.411       .  A
C416        H421   1.084       .  S
C417        C418   1.392       .  A
C418        H422   1.083       .  S
C423        C424   1.397       .  A
C423        C428   1.392       .  A
C423        H429   1.075       .  S
C424        C425   1.422       .  A
C425        C426   1.391       .  A
C425        H430   1.083       .  S
C426        C427   1.393       .  A
C426        H431   1.083       .  S
C427        C428   1.411       .  A
C428        H432   1.084       .  S
C433        C434   1.423       .  A
C433        C438   1.392       .  A
C433        H439   1.083       .  S
C434        C435   1.397       .  A
C435        C436   1.391       .  A
C435        H440   1.075       .  S
C436        C437   1.411       .  A
C436        H441   1.084       .  S
C437        C438   1.391       .  A
C438        H442   1.083       .  S
C443        C444   1.396       .  A
C443        C448   1.391       .  A
C443        H449   1.075       .  S
C444        C445   1.423       .  A
C445        C446   1.392       .  A
C445        H450   1.083       .  S
C446        C447   1.392       .  A
C446        H451   1.083       .  S
C447        C448   1.412       .  A
C448        H452   1.084       .  S
C453        C640   1.545       .  S
C453        C650   1.544       .  S
C453        C660   1.544       .  S
C453        C670   1.544       .  S
O454        C456   1.291       .  A
O454       Zr692   2.461   1_545  S
O455        C456   1.293       .  A
O455       Zr492   2.452       .  S
C456        C634   1.453       .  S
O457        C459   1.268       .  A
O457       Zr469   2.337       .  S
O458        C459   1.296       .  A
O458       Zr493   2.475       .  S
C459        C663   1.457       .  S
O460        C462   1.268       .  A
O460       Zr695   2.335   1_545  S
O461        C462   1.296       .  A
O461       Zr492   2.476       .  S
C462        C673   1.458       .  S
O463        C465   1.291       .  A
O463       Zr466   2.458       .  S
O464        C465   1.294       .  A
O464       Zr493   2.458       .  S
C465        C636   1.454       .  S
Zr466       O680   2.461       .  S
Zr466       O467   2.434       .  S
Zr466       O468   2.435       .  S
Zr466       O698   2.373       .  S
Zr466       O473   2.372       .  S
Zr466       O496   2.374       .  S
Zr466       O724   2.372       .  S
O467        H736   0.990       .  S
O468        H735   0.990       .  S
O468        H513   0.990       .  S
Zr469       O686   2.335       .  S
Zr469       O696   2.437       .  S
Zr469       O471   2.435       .  S
Zr469       O473   2.351       .  S
Zr469       O698   2.352       .  S
Zr469       O723   2.351       .  S
Zr469       O499   2.353       .  S
O470       Zr695   2.437   1_545  S
O470        H737   0.990   1_545  S
O470        H740   0.990   1_545  S
O471        H730   0.990       .  S
O472       Zr692   2.373   1_545  S
O472       Zr695   2.352   1_545  S
O472       Zr492   2.384       .  S
O473       Zr493   2.389       .  S
O473        H500   0.966       .  S
O474        C476   1.273       .  A
O474       Zr486   2.368       .  S
O475        C476   1.293       .  A
O475       Zr493   2.461       .  S
C476        C612   1.453       .  S
O477        C479   1.291       .  A
O477       Zr715   2.459   1_545  S
O478        C479   1.294       .  A
O478       Zr492   2.458       .  S
C479        C638   1.454       .  S
O480        C482   1.291       .  A
O480       Zr489   2.460       .  S
O481        C482   1.293       .  A
O481       Zr493   2.452       .  S
C482        C631   1.453       .  S
O483        C485   1.273       .  A
O483       Zr712   2.366   1_545  S
O484        C485   1.293       .  A
O484       Zr492   2.459       .  S
C485        C622   1.452       .  S
Zr486       O709   2.366       .  S
Zr486       O713   2.437       .  S
Zr486       O488   2.435       .  S
Zr486       O494   2.358       .  S
Zr486       O721   2.358       .  S
Zr486       O724   2.356       .  S
Zr486       O496   2.357       .  S
O487       Zr712   2.437       .  S
O487        H733   0.990       .  S
O487        H738   0.990       .  S
O488        H508   0.990       .  S
Zr489       O703   2.459       .  S
Zr489       O490   2.434       .  S
Zr489       O491   2.435       .  S
Zr489       O721   2.372       .  S
Zr489       O494   2.370       .  S
Zr489       O499   2.373       .  S
Zr489       O723   2.371       .  S
O490        H732   0.990       .  S
O491        H505   0.990       .  S
O491        H515   0.990       .  S
Zr492       O495   2.390       .  S
Zr492       O497   2.388       .  S
Zr492       O498   2.394       .  S
Zr493       O494   2.393       .  S
Zr493       O496   2.392       .  S
Zr493       O499   2.385       .  S
O494        H502   0.966       .  S
O495       Zr712   2.358   1_545  S
O495       Zr715   2.372   1_545  S
O497       Zr695   2.351   1_545  S
O497       Zr715   2.371   1_545  S
O497        H501   0.966       .  S
O498       Zr692   2.372   1_545  S
O498       Zr712   2.356   1_545  S
O498        H503   0.966       .  S
H504        O697   0.990   1_545  S
H506        O716   0.990   1_545  S
H507        O713   0.990       .  S
H509        O694   0.990   1_545  S
H510        O693   0.990   1_545  S
H511        O696   0.990       .  S
H512        O713   0.990       .  S
H514        O696   0.990       .  S
C516        C632   1.461       .  S
C516        C637   1.463       .  S
C517        C633   1.461       .  S
C517        C635   1.463       .  S
C518        C592   1.536       .  S
C518        C605   1.538       .  S
C518        C615   1.537       .  S
C518        C625   1.537       .  S
C519        C585   1.468       .  S
C519        C816   1.468       .  S
C519        C520   1.368       .  D
C520        C809   1.468       .  S
C520        C588   1.468       .  S
O521        C523   1.269       .  A
O521       Zr533   2.344       .  S
O522        C523   1.295       .  A
O522       Zr559   2.471       .  S
C523        C653   1.459       .  S
O524        C526   1.290       .  A
O525        C526   1.295       .  A
O525       Zr560   2.466       .  S
C526        C587   1.457       .  S
O527        C529   1.291       .  A
O527       Zr536   2.457       .  S
O528        C529   1.295       .  A
O528       Zr559   2.464       .  S
C529        C586   1.457       .  S
O530        C532   1.268       .  A
O531        C532   1.296       .  A
O531       Zr560   2.473       .  S
C532        C643   1.458       .  S
Zr533       O534   2.435       .  S
Zr533       O539   2.352       .  S
Zr533       O565   2.351       .  S
O534        H577   0.990       .  S
Zr536       O537   2.436       .  S
Zr536       O539   2.370       .  S
Zr536       O564   2.371   1_556  S
O537        H581   0.990       .  S
O539       Zr559   2.387       .  S
O540       Zr560   2.392       .  S
O540        H567   0.966       .  S
O541        C543   1.291       .  A
O542        C543   1.295       .  A
O542       Zr560   2.464       .  S
C543        C584   1.457       .  S
O544        C546   1.273       .  A
O544       Zr556   2.366       .  S
O545        C546   1.293       .  A
O545       Zr559   2.460   1_554  S
C546        C602   1.453       .  S
O547        C549   1.272       .  A
O548        C549   1.294       .  A
O548       Zr560   2.464   1_554  S
C549        C595   1.453       .  S
O550        C552   1.290       .  A
O550       Zr553   2.454       .  S
O551        C552   1.295       .  A
O551       Zr559   2.466       .  S
C552        C589   1.457       .  S
Zr553       O554   2.436   1_556  S
Zr553       O555   2.434       .  S
Zr553       O562   2.372   1_556  S
Zr553       O565   2.372       .  S
O554        H579   0.990       .  S
Zr556       O557   2.434       .  S
Zr556       O558   2.436       .  S
Zr556       O562   2.357       .  S
Zr556       O564   2.354       .  S
O557        H573   0.990       .  S
O558        H582   0.990       .  S
Zr559       O562   2.391   1_556  S
Zr559       O564   2.395   1_556  S
Zr559       O565   2.391       .  S
Zr560       O561   2.396   1_556  S
Zr560       O563   2.387       .  S
Zr560       O566   2.393   1_556  S
O561        H569   0.966       .  S
O564        H568   0.966       .  S
O565        H570   0.966       .  S
C583        C746   1.468   1_545  S
C583        C584   1.219       .  T
C585        C586   1.219       .  T
C587        C588   1.219       .  T
C589        C590   1.219       .  T
C590        C745   1.468   1_545  S
C591        C592   1.409       .  A
C591        C596   1.391       .  A
C591        H597   1.081       .  S
C592        C593   1.417       .  A
C593        C594   1.395       .  A
C593        H598   1.083       .  S
C594        C595   1.396       .  A
C594        H599   1.083       .  S
C595        C596   1.402       .  A
C596        H600   1.084       .  S
C601        C602   1.395       .  A
C601        C606   1.395       .  A
C601        H607   1.083       .  S
C602        C603   1.402       .  A
C603        C604   1.390       .  A
C603        H608   1.084       .  S
C604        C605   1.409       .  A
C604        H609   1.081       .  S
C605        C606   1.417       .  A
C606        H610   1.083       .  S
C611        C612   1.401       .  A
C611        C616   1.391       .  A
C611        H617   1.084       .  S
C612        C613   1.396       .  A
C613        C614   1.395       .  A
C613        H618   1.083       .  S
C614        C615   1.417       .  A
C614        H619   1.083       .  S
C615        C616   1.410       .  A
C616        H620   1.081       .  S
C621        C622   1.401       .  A
C621        C626   1.391       .  A
C621        H627   1.084       .  S
C622        C623   1.395       .  A
C623        C624   1.394       .  A
C623        H628   1.083       .  S
C624        C625   1.417       .  A
C624        H629   1.083       .  S
C625        C626   1.410       .  A
C626        H630   1.081       .  S
C631        C632   1.216       .  T
C633        C634   1.216       .  T
C635        C636   1.217       .  T
C637        C638   1.217       .  T
C639        C640   1.423       .  A
C639        C644   1.392       .  A
C639        H645   1.083       .  S
C640        C641   1.397       .  A
C641        C642   1.391       .  A
C641        H646   1.075       .  S
C642        C643   1.411       .  A
C642        H647   1.084       .  S
C643        C644   1.392       .  A
C644        H648   1.083       .  S
C649        C650   1.397       .  A
C649        C654   1.392       .  A
C649        H655   1.075       .  S
C650        C651   1.422       .  A
C651        C652   1.391       .  A
C651        H656   1.083       .  S
C652        C653   1.393       .  A
C652        H657   1.083       .  S
C653        C654   1.411       .  A
C654        H658   1.084       .  S
C659        C660   1.423       .  A
C659        C664   1.392       .  A
C659        H665   1.083       .  S
C660        C661   1.397       .  A
C661        C662   1.391       .  A
C661        H666   1.075       .  S
C662        C663   1.411       .  A
C662        H667   1.084       .  S
C663        C664   1.391       .  A
C664        H668   1.083       .  S
C669        C670   1.396       .  A
C669        C674   1.391       .  A
C669        H675   1.075       .  S
C670        C671   1.423       .  A
C671        C672   1.392       .  A
C671        H676   1.083       .  S
C672        C673   1.392       .  A
C672        H677   1.083       .  S
C673        C674   1.412       .  A
C674        H678   1.084       .  S
C679        C866   1.545       .  S
C679        C876   1.544       .  S
C679        C886   1.544       .  S
C679        C896   1.544       .  S
O680        C682   1.291       .  A
O681        C682   1.293       .  A
O681       Zr718   2.452       .  S
C682        C860   1.453       .  S
O683        C685   1.268       .  A
O683       Zr695   2.337       .  S
O684        C685   1.296       .  A
O684       Zr719   2.475       .  S
C685        C889   1.457       .  S
O686        C688   1.268       .  A
O687        C688   1.296       .  A
O687       Zr718   2.476       .  S
C688        C899   1.458       .  S
O689        C691   1.291       .  A
O689       Zr692   2.458       .  S
O690        C691   1.294       .  A
O690       Zr719   2.458       .  S
C691        C862   1.454       .  S
Zr692       O693   2.434       .  S
Zr692       O694   2.435       .  S
Zr692       O699   2.372       .  S
Zr692       O722   2.374       .  S
O694        H739   0.990   1_565  S
Zr695       O697   2.435       .  S
Zr695       O699   2.351       .  S
Zr695       O725   2.353       .  S
O698       Zr718   2.384       .  S
O699       Zr719   2.389       .  S
O699        H726   0.966       .  S
O700        C702   1.273       .  A
O700       Zr712   2.368       .  S
O701        C702   1.293       .  A
O701       Zr719   2.461       .  S
C702        C838   1.453       .  S
O703        C705   1.291       .  A
O704        C705   1.294       .  A
O704       Zr718   2.458       .  S
C705        C864   1.454       .  S
O706        C708   1.291       .  A
O706       Zr715   2.460       .  S
O707        C708   1.293       .  A
O707       Zr719   2.452       .  S
C708        C857   1.453       .  S
O709        C711   1.273       .  A
O710        C711   1.293       .  A
O710       Zr718   2.459       .  S
C711        C848   1.452       .  S
Zr712       O714   2.435       .  S
Zr712       O720   2.358       .  S
Zr712       O722   2.357       .  S
O714        H734   0.990       .  S
Zr715       O716   2.434       .  S
Zr715       O717   2.435       .  S
Zr715       O720   2.370       .  S
Zr715       O725   2.373       .  S
O717        H731   0.990       .  S
O717        H741   0.990       .  S
Zr718       O721   2.390       .  S
Zr718       O723   2.388       .  S
Zr718       O724   2.394       .  S
Zr719       O720   2.393       .  S
Zr719       O722   2.392       .  S
Zr719       O725   2.385       .  S
O720        H728   0.966       .  S
O723        H727   0.966       .  S
O724        H729   0.966       .  S
C742        C858   1.461       .  S
C742        C863   1.463       .  S
C743        C859   1.461       .  S
C743        C861   1.463       .  S
C744        C818   1.536       .  S
C744        C831   1.538       .  S
C744        C841   1.537       .  S
C744        C851   1.537       .  S
C745        C811   1.468       .  S
C745        C746   1.368       .  D
C746        C814   1.468       .  S
O747        C749   1.269       .  A
O747       Zr759   2.344       .  S
O748        C749   1.295       .  A
O748       Zr785   2.471       .  S
C749        C879   1.459       .  S
O750        C752   1.290       .  A
O751        C752   1.295       .  A
O751       Zr786   2.466       .  S
C752        C813   1.457       .  S
O753        C755   1.291       .  A
O753       Zr762   2.457       .  S
O754        C755   1.295       .  A
O754       Zr785   2.464       .  S
C755        C812   1.457       .  S
O756        C758   1.268       .  A
O757        C758   1.296       .  A
O757       Zr786   2.473       .  S
C758        C869   1.458       .  S
Zr759       O760   2.435       .  S
Zr759       O765   2.352       .  S
Zr759       O791   2.351       .  S
O760        H803   0.990       .  S
Zr762       O763   2.436       .  S
Zr762       O765   2.370       .  S
Zr762       O790   2.371   1_556  S
O763        H807   0.990       .  S
O765       Zr785   2.387       .  S
O766       Zr786   2.392       .  S
O766        H793   0.966       .  S
O767        C769   1.291       .  A
O768        C769   1.295       .  A
O768       Zr786   2.464       .  S
C769        C810   1.457       .  S
O770        C772   1.273       .  A
O770       Zr782   2.366       .  S
O771        C772   1.293       .  A
O771       Zr785   2.460   1_554  S
C772        C828   1.453       .  S
O773        C775   1.272       .  A
O774        C775   1.294       .  A
O774       Zr786   2.464   1_554  S
C775        C821   1.453       .  S
O776        C778   1.290       .  A
O776       Zr779   2.454       .  S
O777        C778   1.295       .  A
O777       Zr785   2.466       .  S
C778        C815   1.457       .  S
Zr779       O780   2.436   1_556  S
Zr779       O781   2.434       .  S
Zr779       O788   2.372   1_556  S
Zr779       O791   2.372       .  S
O780        H805   0.990       .  S
Zr782       O783   2.434       .  S
Zr782       O784   2.436       .  S
Zr782       O788   2.357       .  S
Zr782       O790   2.354       .  S
O783        H799   0.990       .  S
O784        H808   0.990       .  S
Zr785       O788   2.391   1_556  S
Zr785       O790   2.395   1_556  S
Zr785       O791   2.391       .  S
Zr786       O787   2.396   1_556  S
Zr786       O789   2.387       .  S
Zr786       O792   2.393   1_556  S
O787        H795   0.966       .  S
O790        H794   0.966       .  S
O791        H796   0.966       .  S
C809        C810   1.219       .  T
C811        C812   1.219       .  T
C813        C814   1.219       .  T
C815        C816   1.219       .  T
C817        C818   1.409       .  A
C817        C822   1.391       .  A
C817        H823   1.081       .  S
C818        C819   1.417       .  A
C819        C820   1.395       .  A
C819        H824   1.083       .  S
C820        C821   1.396       .  A
C820        H825   1.083       .  S
C821        C822   1.402       .  A
C822        H826   1.084       .  S
C827        C828   1.395       .  A
C827        C832   1.395       .  A
C827        H833   1.083       .  S
C828        C829   1.402       .  A
C829        C830   1.390       .  A
C829        H834   1.084       .  S
C830        C831   1.409       .  A
C830        H835   1.081       .  S
C831        C832   1.417       .  A
C832        H836   1.083       .  S
C837        C838   1.401       .  A
C837        C842   1.391       .  A
C837        H843   1.084       .  S
C838        C839   1.396       .  A
C839        C840   1.395       .  A
C839        H844   1.083       .  S
C840        C841   1.417       .  A
C840        H845   1.083       .  S
C841        C842   1.410       .  A
C842        H846   1.081       .  S
C847        C848   1.401       .  A
C847        C852   1.391       .  A
C847        H853   1.084       .  S
C848        C849   1.395       .  A
C849        C850   1.394       .  A
C849        H854   1.083       .  S
C850        C851   1.417       .  A
C850        H855   1.083       .  S
C851        C852   1.410       .  A
C852        H856   1.081       .  S
C857        C858   1.216       .  T
C859        C860   1.216       .  T
C861        C862   1.217       .  T
C863        C864   1.217       .  T
C865        C866   1.423       .  A
C865        C870   1.392       .  A
C865        H871   1.083       .  S
C866        C867   1.397       .  A
C867        C868   1.391       .  A
C867        H872   1.075       .  S
C868        C869   1.411       .  A
C868        H873   1.084       .  S
C869        C870   1.392       .  A
C870        H874   1.083       .  S
C875        C876   1.397       .  A
C875        C880   1.392       .  A
C875        H881   1.075       .  S
C876        C877   1.422       .  A
C877        C878   1.391       .  A
C877        H882   1.083       .  S
C878        C879   1.393       .  A
C878        H883   1.083       .  S
C879        C880   1.411       .  A
C880        H884   1.084       .  S
C885        C886   1.423       .  A
C885        C890   1.392       .  A
C885        H891   1.083       .  S
C886        C887   1.397       .  A
C887        C888   1.391       .  A
C887        H892   1.075       .  S
C888        C889   1.411       .  A
C888        H893   1.084       .  S
C889        C890   1.391       .  A
C890        H894   1.083       .  S
C895        C896   1.396       .  A
C895        C900   1.391       .  A
C895        H901   1.075       .  S
C896        C897   1.423       .  A
C897        C898   1.392       .  A
C897        H902   1.083       .  S
C898        C899   1.392       .  A
C898        H903   1.083       .  S
C899        C900   1.412       .  A
C900        H904   1.084       .  S
