geometry optimzed in LAMMPS
_audit_creation_date              2020-12-01 
_audit_creation_method            'lammps2cif' 
_symmetry_space_group_name_H-M    'P1' 
_symmetry_Int_Tables_number       1 
_symmetry_cell_setting            triclinic 
loop_ 
_symmetry_equiv_pos_as_xyz 
  x,y,z 
_cell_length_a                    39.87241019 
_cell_length_b                    42.472216888259986 
_cell_length_c                    41.08237911649785 
_cell_angle_alpha                 90.33560091946214 
_cell_angle_beta                  90.32301726434262 
_cell_angle_gamma                 89.53485532364833 
loop_ 
_atom_site_label 
_atom_site_type_symbol 
_atom_site_fract_x 
_atom_site_fract_y 
_atom_site_fract_z 
_atom_site_charge 
N1          N  0.84016290  0.82458439  0.00980978    -0.02100
C2          C  0.84102413  0.81409832  0.04087607     0.00500
C3          C  0.84152425  0.78149465  0.04102026    -0.22400
C4          C  0.84054988  0.77160345  0.00934694    -0.22600
C5          C  0.83897269  0.79843410  0.99067802     0.00400
H6          H  0.83659028  0.76652368  0.06160630     0.14200
H7          H  0.83606142  0.74770179  0.00124382     0.14200
N8          N  0.76545146  0.17017035  0.00767603    -0.02100
C9          C  0.74251974  0.17040668  0.03246304     0.00500
C10         C  0.71180929  0.15976389  0.02136616    -0.22400
C11         C  0.71477188  0.15472284  0.98887264    -0.22600
C12         C  0.74680780  0.16357450  0.98032529     0.00400
H13         H  0.68815995  0.16024868  0.03412082     0.14200
H14         H  0.69364369  0.15141882  0.97256472     0.14200
N15         N  0.20823669  0.89314394  0.99957383    -0.02100
C16         C  0.22180246  0.89805082  0.02945494     0.00500
C17         C  0.25572226  0.90386764  0.02666260    -0.22400
C18         C  0.26378777  0.89964135  0.99455387    -0.22600
C19         C  0.23429510  0.89223185  0.97841403     0.00400
H20         H  0.27372687  0.90478349  0.04647404     0.14200
H21         H  0.28907937  0.89774936  0.98535967     0.14200
N22         N  0.82710165  0.02967585  0.79645681    -0.02100
C23         C  0.83143418  0.05876503  0.78353786     0.00500
C24         C  0.83446924  0.05684872  0.75013716    -0.22400
C25         C  0.83097080  0.02584542  0.74179402    -0.22600
C26         C  0.82600270  0.00952921  0.77038444     0.00400
H27         H  0.83467847  0.07637190  0.73331696     0.14200
H28         H  0.82835287  0.01688072  0.71720725     0.14200
N29         N  0.98638924  0.18109908  0.80745984    -0.02100
C30         C  0.96028320  0.17267262  0.78767840     0.00500
C31         C  0.97181974  0.15263836  0.76346065    -0.22400
C32         C  0.00586748  0.15378351  0.76449384    -0.22600
C33         C  0.01428512  0.17472898  0.78920530     0.00400
H34         H  0.95823734  0.14384080  0.74254159     0.14200
H35         H  0.02102321  0.14534976  0.74460028     0.14200
N36         N  0.97718537  0.90480023  0.78264415    -0.02100
C37         C  0.94509025  0.90805055  0.77202107     0.00500
C38         C  0.94464514  0.91379077  0.73892456    -0.22400
C39         C  0.97722647  0.91210464  0.72851373    -0.22600
C40         C  0.99663876  0.90596157  0.75572329     0.00400
H41         H  0.92275793  0.91378258  0.72320836     0.14200
H42         H  0.98519141  0.91142686  0.70338420     0.14200
N43         N  0.17385719  0.04675533  0.82357525    -0.02100
C44         C  0.17940303  0.07156700  0.80385932     0.00500
C45         C  0.20746328  0.06638392  0.78498132    -0.22400
C46         C  0.21965530  0.03732028  0.79316501    -0.22600
C47         C  0.19871869  0.02563308  0.81689213     0.00400
H48         H  0.21756432  0.08189399  0.76673110     0.14200
H49         H  0.24046809  0.02521966  0.78163979     0.14200
N50         N  0.97449027  0.80892402  0.12640369    -0.02100
C51         C  0.94475778  0.79424785  0.11974596     0.00500
C52         C  0.95114161  0.76585389  0.10393923    -0.22400
C53         C  0.98460929  0.76011823  0.10645305    -0.22600
C54         C  0.99829652  0.78592193  0.12189399     0.00400
H55         H  0.93332237  0.74753114  0.09827046     0.14200
H56         H  0.99625593  0.73744970  0.10199438     0.14200
N57         N  0.77988592  0.02994920  0.16207434    -0.02100
C58         C  0.76648153  0.05939936  0.15776209     0.00500
C59         C  0.73205494  0.05790035  0.15494428    -0.22400
C60         C  0.72333943  0.02735156  0.15980264    -0.22600
C61         C  0.75274505  0.01044548  0.16483632     0.00400
H62         H  0.71475037  0.07768428  0.15468525     0.14200
H63         H  0.69791038  0.01950525  0.16339516     0.14200
N64         N  0.97744566  0.15775110  0.22350546    -0.02100
C65         C  0.94937224  0.15211199  0.24144211     0.00500
C66         C  0.95850223  0.14115893  0.27190833    -0.22400
C67         C  0.99232116  0.14462314  0.27471116    -0.22600
C68         C  0.00336560  0.15619171  0.24531319     0.00400
H69         H  0.94198407  0.13803748  0.29245664     0.14200
H70         H  0.00596389  0.14367136  0.29750553     0.14200
Zr71       Zr  0.27256737  0.29676170  0.29646261     2.17500
O72         O  0.31008880  0.27223734  0.33611417    -0.50000
O73         O  0.28117924  0.35221771  0.30694619    -0.73200
O74         O  0.32919675  0.30567733  0.28008700    -0.79900
O75         O  0.19870353  0.30221040  0.35190087    -0.81700
O76         O  0.32468224  0.31425541  0.22573090    -0.77300
O77         O  0.25564381  0.30686402  0.35161105    -0.88900
O78         O  0.24840715  0.37848680  0.27041237    -0.74900
O79         O  0.26794184  0.32089841  0.24445556    -0.84400
O80         O  0.21750576  0.31861776  0.29225217    -0.84100
O81         O  0.28520379  0.25618791  0.25754662    -0.70800
O82         O  0.23602258  0.25338800  0.30539934    -0.83000
Zr83       Zr  0.18669464  0.25727376  0.21035876     2.26400
Zr84       Zr  0.27852280  0.28053511  0.20522095     2.06300
Zr85       Zr  0.18058490  0.27551964  0.30076147     2.10000
Zr86       Zr  0.21306688  0.34175545  0.24032977     1.78800
O87         O  0.16885092  0.24193391  0.34700843    -0.91800
O88         O  0.23550607  0.37224700  0.19553452    -0.39600
O89         O  0.17468259  0.29910925  0.24804614    -0.76200
O90         O  0.22253397  0.30124387  0.20053726    -0.94900
O91         O  0.24227179  0.23698408  0.21347514    -0.88200
O92         O  0.19236167  0.23402315  0.26268683    -0.91100
C93         C  0.26971230  0.37754288  0.29403029     1.02700
C94         C  0.22695107  0.31068542  0.36490391     1.15600
C95         C  0.33932108  0.31790963  0.25367409     1.06400
O96         O  0.28708486  0.31526077  0.15904387    -0.93200
O97         O  0.26106023  0.25119699  0.15569215    -0.89000
O98         O  0.20408786  0.24760822  0.15566417    -0.82100
C99         C  0.23274118  0.24326857  0.14257322     1.13000
O100        O  0.29184632  0.19644951  0.30234301    -0.95200
Zr101      Zr  0.24746381  0.21345608  0.26534144     1.88900
O102        O  0.18104669  0.20155164  0.19749574    -0.71800
O103        O  0.32878170  0.25034186  0.19169779    -0.51100
O104        O  0.28861222  0.17877238  0.23975706    -0.95800
O105        O  0.22393669  0.17752320  0.30502645    -0.53000
O106        O  0.21652552  0.17600842  0.23209167    -0.72400
C107        C  0.19449818  0.17645309  0.20916028     1.00000
O108        O  0.14528942  0.28016100  0.17337015    -0.61200
O109        O  0.13224024  0.30922315  0.31196103    -0.56000
O110        O  0.13114217  0.24338731  0.22643165    -0.92700
O111        O  0.12982652  0.24722854  0.28181912    -0.91100
O112        O  0.17763330  0.37882594  0.27012916    -0.91400
O113        O  0.16666990  0.36351660  0.20862960    -0.90200
C114        C  0.11737809  0.23869136  0.25397113     1.18800
H115        H  0.21398251  0.33512373  0.30735915     0.34800
H116        H  0.21863377  0.30941880  0.17881597     0.45600
H117        H  0.17756258  0.21638949  0.26525077     0.39200
H118        H  0.30805725  0.24880799  0.26049809     0.35600
H119        H  0.22845939  0.39421034  0.20022341     0.27400
H120        H  0.34161833  0.26428234  0.17719509     0.33400
H121        H  0.29137388  0.18730491  0.21756266     0.39300
H122        H  0.15717829  0.36684002  0.27532444     0.33700
H123        H  0.14181327  0.32852145  0.32178755     0.32600
H124        H  0.14756712  0.25038448  0.35593312     0.34300
H125        H  0.20005831  0.17525763  0.29879592     0.33300
H126        H  0.15098231  0.34577756  0.20568764     0.37300
H127        H  0.13004372  0.29260618  0.18748445     0.30000
H128        H  0.32458164  0.28946770  0.34416277     0.34200
H129        H  0.28599481  0.20612898  0.32356695     0.37100
H130        H  0.12402943  0.31593385  0.29027231     0.29700
H131        H  0.15773226  0.29618650  0.16099352     0.42600
H132        H  0.31170297  0.31776246  0.15773570     0.32600
H133        H  0.26006795  0.37212316  0.19924515     0.40200
H134        H  0.22339433  0.18971366  0.32563515     0.32100
H135        H  0.34214017  0.24965642  0.21206743     0.32100
H136        H  0.32519516  0.25849525  0.32317214     0.32400
N137        N  0.19207661  0.02489617  0.16427867    -0.02100
C138        C  0.20511666  0.05413886  0.16090291     0.00500
C139        C  0.23968244  0.05295548  0.15950660    -0.22400
C140        C  0.24875001  0.02207422  0.16281832    -0.22600
C141        C  0.21938276  0.00537069  0.16615860     0.00400
H142        H  0.25655829  0.07279564  0.15951866     0.14200
H143        H  0.27411575  0.01319474  0.16563266     0.14200
Zr144      Zr  0.27073965  0.73081951  0.27004600     2.17500
O145        O  0.31624722  0.69706905  0.25060450    -0.50000
O146        O  0.26901862  0.71546965  0.32642472    -0.73200
O147        O  0.32160574  0.74836699  0.29560980    -0.79900
O148        O  0.19952881  0.67414267  0.26151293    -0.81700
O149        O  0.32568441  0.80136181  0.28834541    -0.77300
O150        O  0.25555279  0.67646866  0.27219425    -0.88900
O151        O  0.23037694  0.74790727  0.34991383    -0.74900
O152        O  0.26248507  0.78084326  0.29513452    -0.84400
O153        O  0.21315581  0.73289649  0.28535414    -0.84100
O154        O  0.28766479  0.76872595  0.23048376    -0.70800
O155        O  0.24023668  0.72234909  0.22041872    -0.83000
Zr156      Zr  0.18839500  0.81272678  0.22206598     2.26400
Zr157      Zr  0.27717242  0.81907906  0.25549226     2.06300
Zr158      Zr  0.18240253  0.72478741  0.23608189     2.10000
Zr159      Zr  0.20533971  0.78289366  0.31019045     1.78800
O160        O  0.17489711  0.68432763  0.19454450    -0.91800
O161        O  0.23023389  0.81717591  0.35138701    -0.39600
O162        O  0.17225991  0.77499560  0.26187276    -0.76200
O163        O  0.21928585  0.82206630  0.27121273    -0.94900
O164        O  0.24573701  0.81169952  0.20662755    -0.88200
O165        O  0.19769121  0.76298355  0.19631815    -0.91100
C166        C  0.25229647  0.72563475  0.35086649     1.02700
C167        C  0.22755269  0.66205170  0.27172219     1.15600
C168        C  0.33607479  0.77482098  0.29993934     1.06400
O169        O  0.28687948  0.86150442  0.29449357    -0.93200
O170        O  0.25847572  0.86948597  0.23162367    -0.89000
O171        O  0.20225853  0.86753981  0.22183197    -0.82100
C172        C  0.23024929  0.88194198  0.22275187     1.13000
O173        O  0.29402916  0.71983834  0.16700213    -0.95200
Zr174      Zr  0.25509747  0.76200246  0.18175554     1.88900
O175        O  0.19218788  0.82940585  0.16649640    -0.71800
O176        O  0.32600422  0.83402374  0.22375379    -0.51100
O177        O  0.30498574  0.78517135  0.15815368    -0.95800
O178        O  0.23545353  0.73130266  0.13518344    -0.53000
O179        O  0.23313965  0.79996647  0.14271985    -0.72400
C180        C  0.21080072  0.82196748  0.14239672     1.00000
O181        O  0.13974184  0.84423418  0.23812586    -0.61200
O182        O  0.13182509  0.70722344  0.26334045    -0.56000
O183        O  0.13604453  0.79611156  0.19948350    -0.92700
O184        O  0.13212394  0.74304315  0.20599990    -0.91100
O185        O  0.15747944  0.76188565  0.33919558    -0.91400
O186        O  0.16467234  0.82244496  0.32787333    -0.90200
C187        C  0.12096291  0.76991079  0.19587477     1.18800
H188        H  0.20749146  0.71691218  0.30093854     0.34800
H189        H  0.21417753  0.84273973  0.27992218     0.45600
H190        H  0.18457914  0.76077631  0.17659560     0.39200
H191        H  0.31132624  0.76628301  0.22582744     0.35600
H192        H  0.25264861  0.80794574  0.35592635     0.27400
H193        H  0.32216227  0.85641141  0.21817778     0.33400
H194        H  0.30452567  0.80736426  0.16564423     0.39300
H195        H  0.15088200  0.74303150  0.32648736     0.33700
H196        H  0.12275243  0.69055528  0.24890034     0.32600
H197        H  0.19794193  0.67745524  0.18892680     0.34300
H198        H  0.21502830  0.74229898  0.12726014     0.33300
H199        H  0.15872793  0.83424788  0.30794021     0.37300
H200        H  0.12630334  0.83010032  0.25191260     0.30000
H201        H  0.32463541  0.68602874  0.27023580     0.34200
H202        H  0.31527054  0.72509855  0.17830829     0.37100
H203        H  0.13991105  0.69583255  0.28285724     0.29700
H204        H  0.14835904  0.86026884  0.25354980     0.42600
H205        H  0.29519626  0.85099416  0.31444766     0.32600
H206        H  0.23499538  0.83701721  0.33983013     0.40200
H207        H  0.22704310  0.71153795  0.14470320     0.32100
H208        H  0.34497491  0.83444329  0.23938634     0.32100
H209        H  0.33452404  0.71156341  0.24469124     0.32400
Zr210      Zr  0.77436102  0.26225027  0.21587192     2.17500
O211        O  0.81553878  0.28378632  0.17856179    -0.50000
O212        O  0.77898564  0.20591648  0.20354889    -0.73200
O213        O  0.82962477  0.24940761  0.23432480    -0.79900
O214        O  0.70301625  0.25945948  0.15845375    -0.81700
O215        O  0.82517576  0.24390437  0.28913937    -0.77300
O216        O  0.76007521  0.25731433  0.15933528    -0.88900
O217        O  0.74704832  0.18020844  0.24036407    -0.74900
O218        O  0.76937123  0.23964057  0.26844020    -0.84400
O219        O  0.71916023  0.24174596  0.21905144    -0.84100
O220        O  0.78707453  0.30370576  0.25398859    -0.70800
O221        O  0.73841438  0.30668387  0.20613246    -0.83000
Zr222      Zr  0.68841723  0.30399503  0.30014452     2.26400
Zr223      Zr  0.78025943  0.28078031  0.30690304     2.06300
Zr224      Zr  0.68282347  0.28571999  0.20946597     2.10000
Zr225      Zr  0.71466097  0.21915702  0.27132844     1.78800
O226        O  0.66943535  0.32141448  0.16504717    -0.91800
O227        O  0.73850090  0.18583293  0.31378399    -0.39600
O228        O  0.67644036  0.26237236  0.26224962    -0.76200
O229        O  0.72472339  0.25992247  0.31080950    -0.94900
O230        O  0.74361224  0.32455730  0.29810104    -0.88200
O231        O  0.69424346  0.32709838  0.24770596    -0.91100
C232        C  0.76741727  0.18057947  0.21616684     1.02700
C233        C  0.73179822  0.25227607  0.14560832     1.15600
C234        C  0.83961924  0.23844700  0.26153787     1.06400
O235        O  0.79466067  0.25145725  0.35582968    -0.93200
O236        O  0.76092779  0.31074698  0.35580814    -0.89000
O237        O  0.70390689  0.31120461  0.35607219    -0.82100
C238        C  0.73226048  0.31740356  0.36905024     1.13000
O239        O  0.79345108  0.36565975  0.21022799    -0.95200
Zr240      Zr  0.74931207  0.34718541  0.24591800     1.88900
O241        O  0.68206092  0.35983346  0.31188832    -0.71800
O242        O  0.83085358  0.31147724  0.31593362    -0.51100
O243        O  0.79194092  0.37758100  0.27446067    -0.95800
O244        O  0.73017181  0.38368149  0.20403866    -0.53000
O245        O  0.71667829  0.38561041  0.27747473    -0.72400
C246        C  0.69452626  0.38508176  0.30016279     1.00000
O247        O  0.64693251  0.28197398  0.33679276    -0.61200
O248        O  0.63535577  0.25241041  0.19560536    -0.56000
O249        O  0.63281927  0.31811589  0.28334010    -0.92700
O250        O  0.63115779  0.31349106  0.22804689    -0.91100
O251        O  0.67630531  0.18358626  0.24358061    -0.91400
O252        O  0.66937597  0.20255127  0.30671035    -0.90200
C253        C  0.61863919  0.32227954  0.25572373     1.18800
H254        H  0.71540413  0.22515812  0.20335301     0.34800
H255        H  0.72094036  0.25204918  0.33248018     0.45600
H256        H  0.67923359  0.34478862  0.24463522     0.39200
H257        H  0.80988450  0.31052420  0.25122305     0.35600
H258        H  0.73620823  0.16409083  0.30527986     0.27400
H259        H  0.82303065  0.33364113  0.31621371     0.33400
H260        H  0.78551325  0.37669385  0.29767815     0.39300
H261        H  0.65963295  0.19762263  0.23301557     0.33700
H262        H  0.62509501  0.26250779  0.17626107     0.32600
H263        H  0.66290818  0.34139779  0.17590598     0.34300
H264        H  0.71170214  0.39594491  0.21411230     0.33300
H265        H  0.67539182  0.21078564  0.32854627     0.37300
H266        H  0.63219979  0.26907480  0.32264982     0.30000
H267        H  0.83018587  0.26580147  0.17240498     0.34200
H268        H  0.79655694  0.34845062  0.19415234     0.37100
H269        H  0.64556456  0.23273109  0.18706879     0.29700
H270        H  0.65941799  0.26630153  0.34998194     0.42600
H271        H  0.77492060  0.23811026  0.35997470     0.32600
H272        H  0.76290076  0.18993343  0.31318375     0.40200
H273        H  0.71897802  0.37023695  0.18756003     0.32100
H274        H  0.83723415  0.30713602  0.33880570     0.32100
H275        H  0.82995143  0.29753032  0.19214274     0.32400
Zr276      Zr  0.68475850  0.74481022  0.27581702     2.17500
O277        O  0.63819097  0.71789710  0.24927291    -0.50000
O278        O  0.67645134  0.72834200  0.33106790    -0.73200
O279        O  0.69516340  0.68913302  0.27775774    -0.79900
O280        O  0.63650791  0.81882364  0.29787828    -0.81700
O281        O  0.75197160  0.68490642  0.27692731    -0.77300
O282        O  0.63236062  0.76541734  0.29410516    -0.88900
O283        O  0.71471227  0.75527009  0.36123837    -0.74900
O284        O  0.74058109  0.73838498  0.29526024    -0.84400
O285        O  0.69741863  0.79085979  0.30684783    -0.84100
O286        O  0.71761943  0.73636598  0.22813381    -0.70800
O287        O  0.67566111  0.78801276  0.23961628    -0.83000
Zr288      Zr  0.77900661  0.82132187  0.24230754     2.26400
Zr289      Zr  0.77411798  0.73174657  0.24800844     2.06300
Zr290      Zr  0.68968229  0.83427730  0.27080685     2.10000
Zr291      Zr  0.75293704  0.78405664  0.32591338     1.78800
O292        O  0.64284351  0.86026854  0.24352948    -0.91800
O293        O  0.78706364  0.74600607  0.35584885    -0.39600
O294        O  0.74641620  0.82877530  0.29054214    -0.76200
O295        O  0.78807759  0.77810897  0.27909803    -0.94900
O296        O  0.76637556  0.77507308  0.21195095    -0.88200
O297        O  0.72281250  0.82661215  0.22293431    -0.91100
C298        C  0.68953341  0.73661436  0.35825697     1.02700
C299        C  0.62127095  0.79243118  0.30285746     1.15600
C300        C  0.72241573  0.67398102  0.28310974     1.06400
O301        O  0.82588083  0.70966776  0.27021454    -0.93200
O302        O  0.82085126  0.74968145  0.21345069    -0.89000
O303        O  0.83311416  0.79896311  0.23082598    -0.82100
C304        C  0.83914933  0.77465568  0.21338023     1.13000
O305        O  0.66444548  0.74988177  0.17078083    -0.95200
Zr306      Zr  0.71068690  0.78051562  0.19286503     1.88900
O307        O  0.78905840  0.83180570  0.18525145    -0.71800
O308        O  0.77434192  0.68976921  0.20741352    -0.51100
O309        O  0.73173345  0.74217706  0.15363363    -0.95800
O310        O  0.67134962  0.81239175  0.16115127    -0.53000
O311        O  0.74623055  0.81016566  0.15661234    -0.72400
C312        C  0.77373504  0.82559440  0.15848482     1.00000
O313        O  0.82332908  0.85448262  0.26470872    -0.61200
O314        O  0.68805933  0.87109608  0.31645204    -0.56000
O315        O  0.76711807  0.87674133  0.23662548    -0.92700
O316        O  0.71171224  0.88409099  0.24791578    -0.91100
O317        O  0.74090638  0.82553119  0.36541034    -0.91400
O318        O  0.80309584  0.80636437  0.35065957    -0.90200
C319        C  0.74039835  0.89363523  0.23716592     1.18800
H320        H  0.68327618  0.79334110  0.32568098     0.34800
H321        H  0.81130806  0.77709647  0.28595264     0.45600
H322        H  0.72031956  0.84360766  0.20762791     0.39200
H323        H  0.71090828  0.71723331  0.21716302     0.35600
H324        H  0.77472851  0.72591994  0.35409538     0.27400
H325        H  0.77427832  0.70084447  0.18627942     0.33400
H326        H  0.72591192  0.75114077  0.13211826     0.39300
H327        H  0.72430386  0.81633270  0.38036400     0.33700
H328        H  0.68386182  0.85776412  0.33567333     0.32600
H329        H  0.63040286  0.84296262  0.23279329     0.34300
H330        H  0.68285491  0.81664942  0.14036758     0.33300
H331        H  0.81299992  0.81937669  0.33332141     0.37300
H332        H  0.81222421  0.86774083  0.28144405     0.30000
H333        H  0.63057853  0.70215436  0.26525150     0.34200
H334        H  0.64580722  0.75349030  0.18621845     0.37100
H335        H  0.71151617  0.87814609  0.31922656     0.29700
H336        H  0.83792533  0.84008946  0.27743322     0.42600
H337        H  0.81867840  0.69222809  0.28437192     0.32600
H338        H  0.80718530  0.74264122  0.34220147     0.40200
H339        H  0.67048255  0.83302294  0.17246580     0.32100
H340        H  0.79706129  0.68031602  0.20907283     0.32100
H341        H  0.64853910  0.70530688  0.23157165     0.32400
N342        N  0.19533115  0.17244902  0.00076049    -0.02100
C343        C  0.22000971  0.16927134  0.02400059     0.00500
C344        C  0.24858357  0.15609793  0.01054561    -0.22400
C345        C  0.24282053  0.15332229  0.97802986    -0.22600
C346        C  0.21135575  0.16595484  0.97191141     0.00400
H347        H  0.27304872  0.15353559  0.02172106     0.14200
H348        H  0.26233871  0.14895455  0.96030018     0.14200
Zr349      Zr  0.17983928  0.27297218  0.79789488     2.17500
O350        O  0.14564984  0.27981303  0.84650240    -0.50000
O351        O  0.16154801  0.21880711  0.79723231    -0.73200
O352        O  0.12256696  0.28572116  0.78426210    -0.79900
O353        O  0.25493300  0.24428794  0.84243041    -0.81700
O354        O  0.12120997  0.27856771  0.73044308    -0.77300
O355        O  0.20158185  0.26114938  0.85112826    -0.88900
O356        O  0.18441110  0.19594354  0.75241502    -0.74900
O357        O  0.17376123  0.26201843  0.74122662    -0.84400
O358        O  0.22772770  0.24243562  0.78202531    -0.84100
O359        O  0.17402748  0.32365467  0.77237099    -0.70800
O360        O  0.22710918  0.30469785  0.81185054    -0.83000
Zr361      Zr  0.26329552  0.31378300  0.71318876     2.26400
Zr362      Zr  0.16900564  0.31211361  0.71476301     2.06300
Zr363      Zr  0.27533977  0.27443007  0.79507738     2.10000
Zr364      Zr  0.22116092  0.23235932  0.72552093     1.78800
O365        O  0.30048443  0.30176907  0.84128699    -0.91800
O366        O  0.18312917  0.21586135  0.68216985    -0.39600
O367        O  0.26960244  0.26328888  0.73787980    -0.76200
O368        O  0.21691109  0.28181650  0.69804235    -0.94900
O369        O  0.21581309  0.34436697  0.72809720    -0.88200
O370        O  0.27079033  0.32462784  0.76954092    -0.91100
C371        C  0.16630206  0.19532726  0.77810366     1.02700
C372        C  0.22754969  0.24514062  0.85910904     1.15600
C373        C  0.10912900  0.27373406  0.75902357     1.06400
O374        O  0.13294035  0.30381105  0.66756461    -0.93200
O375        O  0.18959199  0.33619770  0.66310313    -0.89000
O376        O  0.24666815  0.33616880  0.66297162    -0.82100
C377        C  0.21835520  0.34229115  0.65002231     1.13000
O378        O  0.19039044  0.37098324  0.83208967    -0.95200
Zr379      Zr  0.22266560  0.35422489  0.78481040     1.88900
O380        O  0.28154694  0.36768178  0.71296125    -0.71800
O381        O  0.13394229  0.35878109  0.72217354    -0.51100
O382        O  0.18788569  0.40031249  0.77339423    -0.95800
O383        O  0.25815708  0.37297882  0.82922258    -0.53000
O384        O  0.25988189  0.39064035  0.75837727    -0.72400
C385        C  0.27752220  0.39102881  0.73237400     1.00000
O386        O  0.29355936  0.29292699  0.66619485    -0.61200
O387        O  0.31473612  0.23098845  0.80295504    -0.56000
O388        O  0.32126359  0.31143105  0.72327205    -0.92700
O389        O  0.33123802  0.28598144  0.77094767    -0.91100
O390        O  0.25625787  0.18674482  0.73794083    -0.91400
O391        O  0.25063277  0.21197121  0.67801852    -0.90200
C392        C  0.34084956  0.30047534  0.74497298     1.18800
H393        H  0.22887308  0.22259214  0.79333425     0.34800
H394        H  0.21641686  0.27822883  0.67476688     0.45600
H395        H  0.29073157  0.33679929  0.77359096     0.39200
H396        H  0.15445218  0.33487303  0.78014299     0.35600
H397        H  0.18053814  0.19289792  0.68517403     0.27400
H398        H  0.13095137  0.36726922  0.69993639     0.33400
H399        H  0.19900317  0.41782385  0.78512806     0.39300
H400        H  0.27608860  0.19556989  0.74924894     0.33700
H401        H  0.32539984  0.23536816  0.82431630     0.32600
H402        H  0.28122935  0.30866577  0.85475148     0.34300
H403        H  0.25924653  0.39605352  0.82616805     0.33300
H404        H  0.27257892  0.22270153  0.67846642     0.37300
H405        H  0.30742104  0.27533924  0.67472001     0.30000
H406        H  0.12753728  0.26409108  0.84443030     0.34200
H407        H  0.18026630  0.35139566  0.84034977     0.37100
H408        H  0.30056755  0.21234826  0.80676681     0.29700
H409        H  0.27633791  0.28236979  0.65263188     0.42600
H410        H  0.13915973  0.28252296  0.65956935     0.32600
H411        H  0.16108004  0.22496854  0.68817477     0.40200
H412        H  0.28100372  0.36528955  0.82398585     0.32100
H413        H  0.11163488  0.35047184  0.72793442     0.32100
H414        H  0.13433033  0.30051381  0.84410627     0.32400
Zr415      Zr  0.19152452  0.82040046  0.78790715     2.17500
O416        O  0.14268729  0.80789010  0.82071180    -0.50000
O417        O  0.19563023  0.87481240  0.80425222    -0.73200
O418        O  0.20700910  0.81900869  0.84449419    -0.79900
O419        O  0.13735129  0.83800881  0.71327510    -0.81700
O420        O  0.26349044  0.81258066  0.84446738    -0.77300
O421        O  0.13948265  0.84109775  0.76864422    -0.88900
O422        O  0.24215661  0.89427575  0.78015574    -0.74900
O423        O  0.24968844  0.83126283  0.78952089    -0.84400
O424        O  0.20389644  0.84597654  0.73801880    -0.84100
O425        O  0.21688504  0.76984852  0.79565684    -0.70800
O426        O  0.17369428  0.78527481  0.74574900    -0.83000
Zr427      Zr  0.27308179  0.77069006  0.70389898     2.26400
Zr428      Zr  0.27570278  0.78100765  0.79576818     2.06300
Zr429      Zr  0.18827435  0.81026557  0.69546261     2.10000
Zr430      Zr  0.26211255  0.85628118  0.73986287     1.78800
O431        O  0.13802054  0.78892336  0.66990470    -0.91800
O432        O  0.31475098  0.87309624  0.76441141    -0.39600
O433        O  0.24713273  0.82115217  0.69615491    -0.76200
O434        O  0.29032083  0.80651851  0.74586235    -0.94900
O435        O  0.25962092  0.74538045  0.75357414    -0.88200
O436        O  0.21468149  0.76019635  0.70263006    -0.91100
C437        C  0.21681009  0.89670064  0.79924453     1.02700
C438        C  0.12512083  0.84568184  0.74121083     1.15600
C439        C  0.23587184  0.82161150  0.85782873     1.06400
O440        O  0.33076603  0.79705969  0.81539336    -0.93200
O441        O  0.32158257  0.74644455  0.77906791    -0.89000
O442        O  0.32337454  0.74619960  0.72369465    -0.82100
C443        C  0.33475465  0.73848463  0.75170504     1.13000
O444        O  0.15508224  0.72059524  0.78706396    -0.95200
Zr445      Zr  0.20114235  0.73550413  0.75185986     1.88900
O446        O  0.26972609  0.71552449  0.68870299    -0.71800
O447        O  0.27156380  0.74112352  0.83797468    -0.51100
O448        O  0.21253261  0.69056530  0.78680351    -0.95800
O449        O  0.15329940  0.71882606  0.71889561    -0.53000
O450        O  0.22601777  0.69551921  0.71713344    -0.72400
C451        C  0.25018691  0.69305896  0.69674415     1.00000
O452        O  0.32142213  0.78667960  0.67203695    -0.61200
O453        O  0.19049507  0.85409238  0.65758832    -0.56000
O454        O  0.25887519  0.77071796  0.64695804    -0.92700
O455        O  0.20322196  0.78299610  0.64447031    -0.91100
O456        O  0.24165031  0.90321161  0.71200505    -0.91400
O457        O  0.30037916  0.87402977  0.69790566    -0.90200
C458        C  0.23035412  0.77093056  0.63257521     1.18800
H459        H  0.19174096  0.86562511  0.73609946     0.34800
H460        H  0.31433248  0.80948952  0.74500898     0.45600
H461        H  0.20885486  0.74544907  0.68568262     0.39200
H462        H  0.21009278  0.76103626  0.81620051     0.35600
H463        H  0.31259537  0.89628238  0.76621119     0.27400
H464        H  0.29488286  0.73794637  0.84574521     0.33400
H465        H  0.23290382  0.69648811  0.79921275     0.39300
H466        H  0.25638421  0.92038591  0.71976179     0.33700
H467        H  0.17577261  0.87046209  0.66730256     0.32600
H468        H  0.13300677  0.80337199  0.65165387     0.34300
H469        H  0.16268155  0.71229827  0.69762606     0.33300
H470        H  0.31498187  0.85557278  0.69342386     0.37300
H471        H  0.31322110  0.80452266  0.65870024     0.30000
H472        H  0.13875345  0.82680607  0.83442782     0.34200
H473        H  0.13829886  0.73773631  0.78456009     0.37100
H474        H  0.21341034  0.86262672  0.66001319     0.29700
H475        H  0.33692701  0.79651226  0.68795058     0.42600
H476        H  0.33099821  0.79155103  0.83877716     0.32600
H477        H  0.31362511  0.86559271  0.78715267     0.40200
H478        H  0.14064963  0.73844206  0.71419290     0.32100
H479        H  0.26001786  0.75163539  0.85638917     0.32100
H480        H  0.15026224  0.79140491  0.83609039     0.32400
Zr481      Zr  0.77633530  0.26162575  0.79863111     2.17500
O482        O  0.81196033  0.28292963  0.84174849    -0.50000
O483        O  0.78986348  0.20582238  0.80212739    -0.73200
O484        O  0.75892131  0.24312952  0.85057817    -0.79900
O485        O  0.83808273  0.26543480  0.73030368    -0.81700
O486        O  0.70176749  0.24422106  0.85015910    -0.77300
O487        O  0.83440792  0.25816956  0.78512472    -0.88900
O488        O  0.75472924  0.18168834  0.76633129    -0.74900
O489        O  0.72370718  0.23687528  0.78988183    -0.84400
O490        O  0.77638499  0.24491737  0.74317462    -0.84100
O491        O  0.73490693  0.30057097  0.81266524    -0.70800
O492        O  0.78651062  0.30827248  0.76776256    -0.83000
Zr493      Zr  0.69230804  0.30809579  0.71624093     2.26400
Zr494      Zr  0.68172441  0.27544883  0.80212972     2.06300
Zr495      Zr  0.78554858  0.29149150  0.71170093     2.10000
Zr496      Zr  0.72382488  0.22107798  0.73457102     1.78800
O497        O  0.82869134  0.33122161  0.70557115    -0.91800
O498        O  0.68160377  0.18399582  0.75262761    -0.39600
O499        O  0.73224771  0.26766694  0.70251347    -0.76200
O500        O  0.68176187  0.26018731  0.74550150    -0.94900
O501        O  0.69166908  0.32270137  0.77209140    -0.88200
O502        O  0.74541247  0.33141502  0.72495827    -0.91100
C503        C  0.77758242  0.18113305  0.78861241     1.02700
C504        C  0.84992052  0.25626411  0.75808471     1.15600
C505        C  0.73057661  0.23677709  0.86303477     1.06400
O506        O  0.63829562  0.23818823  0.81659824    -0.93200
O507        O  0.62686239  0.28701471  0.77438047    -0.89000
O508        O  0.64642848  0.32748740  0.74757783    -0.82100
C509        C  0.62246086  0.30926479  0.75353600     1.13000
O510        O  0.78386674  0.36138137  0.82331102    -0.95200
Zr511      Zr  0.74426330  0.34698654  0.78048464     1.88900
O512        O  0.68156389  0.36429736  0.71058594    -0.71800
O513        O  0.66117288  0.31113483  0.84421851    -0.51100
O514        O  0.71577437  0.37645282  0.82334174    -0.95800
O515        O  0.78348589  0.38728049  0.76327198    -0.53000
O516        O  0.70953940  0.38673374  0.75302921    -0.72400
C517        C  0.68940299  0.38807290  0.72846231     1.00000
O518        O  0.64943942  0.28545690  0.68063383    -0.61200
O519        O  0.80506005  0.26306604  0.66358531    -0.56000
O520        O  0.70777065  0.32283963  0.66274704    -0.92700
O521        O  0.76481860  0.31838447  0.66124919    -0.91100
O522        O  0.75473456  0.19033003  0.69419031    -0.91400
O523        O  0.68731794  0.20511615  0.68976292    -0.90200
C524        C  0.73598445  0.32664595  0.64898288     1.18800
H525        H  0.79320366  0.22893505  0.73927124     0.34800
H526        H  0.66033821  0.25159590  0.73908111     0.45600
H527        H  0.74830997  0.34974239  0.71151731     0.39200
H528        H  0.73680922  0.30578331  0.83549315     0.35600
H529        H  0.68793446  0.16375720  0.74216574     0.27400
H530        H  0.64038288  0.30118932  0.85208242     0.33400
H531        H  0.71175074  0.36089027  0.84069878     0.39300
H532        H  0.77480866  0.20294600  0.68921350     0.33700
H533        H  0.81910761  0.27837036  0.65186711     0.32600
H534        H  0.81609892  0.35124031  0.70292617     0.34300
H535        H  0.77648796  0.40648498  0.77531208     0.33300
H536        H  0.69672751  0.21536926  0.67028887     0.37300
H537        H  0.65063141  0.29705394  0.65985129     0.30000
H538        H  0.82035216  0.26440585  0.85395463     0.34200
H539        H  0.80531941  0.35132414  0.81681999     0.37100
H540        H  0.82117164  0.24708750  0.67177983     0.29700
H541        H  0.65804422  0.26414893  0.67526256     0.42600
H542        H  0.63486795  0.22541317  0.79662845     0.32600
H543        H  0.68648047  0.18077424  0.77603974     0.40200
H544        H  0.77754780  0.39178360  0.74033374     0.32100
H545        H  0.67732797  0.30869268  0.86243794     0.32100
H546        H  0.79650015  0.29386238  0.85692332     0.32400
Zr547      Zr  0.74640225  0.82525574  0.80156876     2.17500
O548        O  0.72053187  0.86144285  0.84041619    -0.50000
O549        O  0.80431876  0.84102392  0.80595379    -0.73200
O550        O  0.76293535  0.81075054  0.85518022    -0.79900
O551        O  0.74814630  0.87865162  0.72944630    -0.81700
O552        O  0.76084374  0.75723958  0.85808307    -0.77300
O553        O  0.75148032  0.87879984  0.78478624    -0.88900
O554        O  0.83385049  0.80745572  0.77357219    -0.74900
O555        O  0.77283359  0.77491359  0.79955630    -0.84400
O556        O  0.76934917  0.82058314  0.74845929    -0.84100
O557        O  0.70360136  0.78816994  0.81447339    -0.70800
O558        O  0.69989148  0.83332430  0.76571909    -0.83000
Zr559      Zr  0.70732903  0.74025049  0.72084854     2.26400
Zr560      Zr  0.73006577  0.73717553  0.81008705     2.06300
Zr561      Zr  0.72307334  0.82781858  0.71231199     2.10000
Zr562      Zr  0.79586551  0.77064806  0.74681670     1.78800
O563        O  0.67832350  0.86580582  0.70191847    -0.91800
O564        O  0.83291117  0.73482850  0.77638784    -0.39600
O565        O  0.75041239  0.77715765  0.70869076    -0.76200
O566        O  0.75388290  0.73200583  0.75687840    -0.94900
O567        O  0.68383170  0.74424845  0.77381407    -0.88200
O568        O  0.68039013  0.79037931  0.72369741    -0.91100
C569        C  0.83159047  0.83145228  0.79272975     1.02700
C570        C  0.75519984  0.89183617  0.75710687     1.15600
C571        C  0.76855991  0.78466847  0.86951249     1.06400
O572        O  0.76891109  0.69399705  0.82133929    -0.93200
O573        O  0.70086917  0.68827961  0.79208000    -0.89000
O574        O  0.70636020  0.68626834  0.73723194    -0.82100
C575        C  0.69747187  0.67421227  0.76417133     1.13000
O576        O  0.63677810  0.83717264  0.81125734    -0.95200
Zr577      Zr  0.65807961  0.79471702  0.77680167     1.88900
O578        O  0.64966252  0.72380401  0.71830023    -0.71800
O579        O  0.69759912  0.72472537  0.85838443    -0.51100
O580        O  0.62485687  0.77790605  0.82300200    -0.95800
O581        O  0.61652339  0.82671802  0.74797061    -0.53000
O582        O  0.62106758  0.75563888  0.75313209    -0.72400
C583        C  0.62289793  0.73242397  0.73300755     1.00000
O584        O  0.72939697  0.70684596  0.67733750    -0.61200
O585        O  0.75637093  0.84619668  0.66674711    -0.56000
O586        O  0.69102554  0.75468594  0.66693242    -0.92700
O587        O  0.69941446  0.80728867  0.66079771    -0.91100
O588        O  0.83347096  0.79213694  0.70628972    -0.91400
O589        O  0.81696203  0.73206230  0.70769500    -0.90200
C590        C  0.68975607  0.78003509  0.65039288     1.18800
H591        H  0.78613349  0.83619793  0.74414763     0.34800
H592        H  0.76329445  0.71112428  0.75408400     0.45600
H593        H  0.66205178  0.79189814  0.70831824     0.39200
H594        H  0.69579481  0.79161439  0.83646485     0.35600
H595        H  0.85497249  0.73699716  0.76571997     0.27400
H596        H  0.67565974  0.71756498  0.84985798     0.33400
H597        H  0.62875314  0.75489332  0.82424455     0.39300
H598        H  0.81867041  0.79760583  0.68769606     0.33700
H599        H  0.74733665  0.86744751  0.66187625     0.32600
H600        H  0.68886576  0.88227082  0.68853167     0.34300
H601        H  0.59547601  0.82380990  0.76023421     0.33300
H602        H  0.80033320  0.71489560  0.70760089     0.37300
H603        H  0.74564439  0.72027109  0.66582549     0.30000
H604        H  0.73939240  0.87008482  0.85335780     0.34200
H605        H  0.65669641  0.84993680  0.81674179     0.37100
H606        H  0.77891101  0.85005223  0.67611870     0.29700
H607        H  0.74364491  0.69080650  0.68817539     0.42600
H608        H  0.76134412  0.68519785  0.84228663     0.32600
H609        H  0.83595863  0.74475925  0.79805974     0.40200
H610        H  0.61245666  0.81577135  0.72700320     0.32100
H611        H  0.70828546  0.70547607  0.86729328     0.32100
H612        H  0.70823956  0.84792084  0.85577308     0.32400
N613        N  0.47720515  0.66026763  0.72878376    -0.02100
C614        C  0.50723083  0.65552451  0.74356380     0.00500
C615        C  0.50233348  0.65120292  0.77660083    -0.22400
C616        C  0.46882295  0.65601048  0.78246661    -0.22600
C617        C  0.45408483  0.66219839  0.75268702     0.00400
H618        H  0.52169105  0.65098064  0.79519037     0.14200
H619        H  0.45757842  0.65897560  0.80620915     0.14200
N620        N  0.28409639  0.53997334  0.68869023    -0.02100
C621        C  0.27773438  0.51816289  0.71162669     0.00500
C622        C  0.25310633  0.52850813  0.73269120    -0.22400
C623        C  0.24382566  0.55789166  0.72239552    -0.22600
C624        C  0.26307349  0.56434909  0.69535374     0.00400
H625        H  0.24265908  0.51580230  0.75297194     0.14200
H626        H  0.22573013  0.57336613  0.73398835     0.14200
N627        N  0.48052397  0.33346520  0.66725390    -0.02100
C628        C  0.50960530  0.31685328  0.66477968     0.00500
C629        C  0.50358312  0.28705357  0.65256703    -0.22400
C630        C  0.46966823  0.28321750  0.65327235    -0.22600
C631        C  0.45661753  0.31068549  0.66663690     0.00400
H632        H  0.52165023  0.26795561  0.65080145     0.14200
H633        H  0.45715588  0.26082368  0.65075391     0.14200
N634        N  0.62747807  0.53648699  0.71933925    -0.02100
C635        C  0.62459061  0.50763573  0.73326864     0.00500
C636        C  0.61750340  0.51033602  0.76595436    -0.22400
C637        C  0.61747680  0.54172168  0.77322769    -0.22600
C638        C  0.62464697  0.55751127  0.74472450     0.00400
H639        H  0.61691716  0.49140315  0.78346522     0.14200
H640        H  0.61702218  0.55140542  0.79763676     0.14200
N641        N  0.47629959  0.40105353  0.28887746    -0.02100
C642        C  0.50150979  0.40327882  0.26644169     0.00500
C643        C  0.48879796  0.41422964  0.23717929    -0.22400
C644        C  0.45498662  0.41619878  0.24044257    -0.22600
C645        C  0.44746564  0.40539555  0.27121878     0.00400
H646        H  0.50137423  0.41530526  0.21399155     0.14200
H647        H  0.43781841  0.41841128  0.22005662     0.14200
N648        N  0.67926328  0.53531943  0.35122958    -0.02100
C649        C  0.69261293  0.50592045  0.35534506     0.00500
C650        C  0.72711221  0.50716878  0.35769650    -0.22400
C651        C  0.73587567  0.53781925  0.35354993    -0.22600
C652        C  0.70643891  0.55471871  0.34924506     0.00400
H653        H  0.74429577  0.48729341  0.35773092     0.14200
H654        H  0.76120926  0.54619879  0.35048781     0.14200
N655        N  0.48064254  0.75213720  0.37921176    -0.02100
C656        C  0.50523611  0.77402610  0.38411540     0.00500
C657        C  0.49146335  0.80158762  0.39649976    -0.22400
C658        C  0.45755227  0.79772258  0.39679150    -0.22600
C659        C  0.45136115  0.76814589  0.38421004     0.00400
H660        H  0.50379341  0.82403316  0.39941419     0.14200
H661        H  0.43939106  0.81663065  0.39957160     0.14200
N662        N  0.27040033  0.52683716  0.34474652    -0.02100
C663        C  0.25871664  0.49709277  0.34835726     0.00500
C664        C  0.22415316  0.49695953  0.34970068    -0.22400
C665        C  0.21368496  0.52730082  0.34556420    -0.22600
C666        C  0.24220525  0.54525430  0.34197059     0.00400
H667        H  0.20818874  0.47645469  0.34910273     0.14200
H668        H  0.18796716  0.53462368  0.34141427     0.14200
N669        N  0.62619099  0.73431793  0.50710992    -0.02100
C670        C  0.62449736  0.74376740  0.47568920     0.00500
C671        C  0.62168270  0.77610103  0.47383905    -0.22400
C672        C  0.62298792  0.78734416  0.50499715    -0.22600
C673        C  0.62638697  0.76146646  0.52509650     0.00400
H674        H  0.62332861  0.79018918  0.45203096     0.14200
H675        H  0.62555929  0.81188714  0.51163805     0.14200
N676        N  0.69494842  0.39574011  0.50773583    -0.02100
C677        C  0.71784875  0.39774302  0.48302113     0.00500
C678        C  0.74713867  0.41138694  0.49410672    -0.22400
C679        C  0.74381998  0.41540791  0.52670556    -0.22600
C680        C  0.71315968  0.40290483  0.53517995     0.00400
H681        H  0.77064771  0.41341276  0.48133432     0.14200
H682        H  0.76467392  0.42025989  0.54292088     0.14200
N683        N  0.25719559  0.67848627  0.50389289    -0.02100
C684        C  0.24278004  0.67025842  0.47511955     0.00500
C685        C  0.20851113  0.66752506  0.47872483    -0.22400
C686        C  0.20124956  0.67660331  0.50988886    -0.22600
C687        C  0.23143647  0.68393771  0.52474766     0.00400
H688        H  0.19024306  0.66515717  0.45927609     0.14200
H689        H  0.17632105  0.68167831  0.51887094     0.14200
N690        N  0.26003217  0.39385888  0.50152019    -0.02100
C691        C  0.23730399  0.39510527  0.47622529     0.00500
C692        C  0.20826872  0.41047112  0.48594067    -0.22400
C693        C  0.21161267  0.41684024  0.51812597    -0.22600
C694        C  0.24194685  0.40412929  0.52793246     0.00400
H695        H  0.18468920  0.41229910  0.47298652     0.14200
H696        H  0.19098627  0.42373647  0.53373751     0.14200
O697        O  0.89579520  0.96852569  0.99426977    -0.85100
O698        O  0.08640102  0.98442806  0.99592511    -0.85300
O699        O  0.99465880  0.94625776  0.93558241    -0.86900
O700        O  0.99371403  0.93060736  0.04108010    -0.85700
O701        O  0.98506762  0.96144953  0.08644826    -0.85300
O702        O  0.99343177  0.99050889  0.90378044    -0.86700
O703        O  0.05109888  0.94228557  0.99061650    -0.85100
O704        O  0.94098627  0.93517887  0.98889326    -0.84700
Zr705      Zr  0.99333925  0.96399642  0.99279140     2.84300
O706        O  0.02316697  0.99328996  0.03170656    -1.06700
O707        O  0.95664559  0.99746026  0.96405740    -1.07400
C708        C  0.90914665  0.94077364  0.99070826     1.08000
C709        C  0.08068736  0.95478165  0.99168842     1.07900
C710        C  0.99503345  0.96046213  0.90773327     1.10900
C711        C  0.98917218  0.93429046  0.07204226     1.08700
H712        H  0.03921769  0.99272940  0.95097997     0.34300
O713        O  0.02387963  0.00266151  0.96600781    -1.27700
H714        H  0.94212035  0.97322790  0.03976195     0.33900
O715        O  0.95527807  0.98877826  0.02865614    -1.29300
O716        O  0.07791564  0.08384377  0.01076443    -0.85100
O717        O  0.88606570  0.07086539  0.00597173    -0.86600
O718        O  0.04152074  0.04320420  0.91273341    -0.85200
O719        O  0.04130807  0.01516777  0.09589881    -0.85200
O720        O  0.92854666  0.01569989  0.09256223    -0.84900
O721        O  0.93506120  0.03077675  0.90821323    -0.84800
O722        O  0.97972165  0.12400244  0.96019008    -0.85100
O723        O  0.97879552  0.10946501  0.06940973    -0.84600
O724        O  0.98351714  0.08955513  0.91695350    -0.85600
O725        O  0.98235037  0.06506896  0.10123072    -0.84800
O726        O  0.08162855  0.04036549  0.95255438    -0.85200
O727        O  0.89251146  0.02225563  0.94419724    -0.84900
O728        O  0.88953444  0.01701734  0.05122691    -0.84600
O729        O  0.08073010  0.02474789  0.05682545    -0.85000
O730        O  0.03545387  0.12081638  0.01211960    -0.85300
O731        O  0.92159042  0.11280880  0.01317212    -0.86600
Zr732      Zr  0.05328039  0.03221329  0.00445273     2.83100
Zr733      Zr  0.91864434  0.02214371  0.99927004     2.83500
Zr734      Zr  0.98730351  0.03649978  0.93816593     2.84100
Zr735      Zr  0.98539507  0.01744345  0.06797931     2.83400
Zr736      Zr  0.98041427  0.09218091  0.01138812     2.84200
O737        O  0.95050249  0.05132997  0.03708567    -1.07200
O738        O  0.01761306  0.06641098  0.97584754    -1.06700
C739        C  0.06706972  0.11249090  0.01188553     1.08000
C740        C  0.89181551  0.10049823  0.01080947     1.10600
C741        C  0.07229944  0.04315789  0.92250716     1.08100
C742        C  0.07219453  0.01825223  0.08628839     1.08500
C743        C  0.89781810  0.01586846  0.08170553     1.08100
C744        C  0.90414095  0.02505748  0.91488274     1.07600
C745        C  0.98148173  0.11751261  0.92918326     1.08100
C746        C  0.98048380  0.09525277  0.09739734     1.07600
H747        H  0.93453646  0.07507388  0.96070332     0.34300
O748        O  0.94947813  0.06178865  0.97321530    -1.28300
H749        H  0.02904831  0.06873271  0.05621600     0.34300
O750        O  0.01593541  0.05694037  0.04060762    -1.29700
O751        O  0.46436853  0.61637874  0.57613183    -0.85100
O752        O  0.47684479  0.43813531  0.54981877    -0.85300
O753        O  0.41444692  0.52337480  0.59801911    -0.86900
O754        O  0.52251848  0.52804552  0.60421316    -0.85700
O755        O  0.56558848  0.53757772  0.56898761    -0.85300
O756        O  0.37495262  0.52928417  0.55798178    -0.86700
O757        O  0.47382689  0.47077632  0.59442869    -0.85100
O758        O  0.46534067  0.57189888  0.60768669    -0.84700
Zr759      Zr  0.47006509  0.52501841  0.57391000     2.84300
O760        O  0.50742551  0.49999870  0.53833863    -1.06700
O761        O  0.43528445  0.56031144  0.54562090    -1.07400
C762        C  0.46403343  0.60203468  0.60384210     1.08000
C763        C  0.47584885  0.44307176  0.58114917     1.07900
C764        C  0.38380451  0.52658309  0.58815157     1.10900
C765        C  0.55356475  0.53393813  0.59808522     1.08700
H766        H  0.42549051  0.48159087  0.54653982     0.34300
O767        O  0.43924084  0.49660654  0.53530285    -1.27700
H768        H  0.51419857  0.57601515  0.56451814     0.33900
O769        O  0.50187823  0.56394281  0.54853292    -1.29300
O770        O  0.47737002  0.45411678  0.44120055    -0.85100
O771        O  0.47097948  0.63259562  0.47159855    -0.86600
O772        O  0.37909677  0.48165463  0.49922071    -0.85200
O773        O  0.57164731  0.48994366  0.50938001    -0.85200
O774        O  0.56321084  0.59276904  0.51892454    -0.84900
O775        O  0.37335292  0.58135296  0.51372335    -0.84800
O776        O  0.41931163  0.54584549  0.41482781    -0.85100
O777        O  0.53098165  0.54962367  0.41965442    -0.84600
O778        O  0.37891788  0.53810699  0.45346897    -0.85600
O779        O  0.56875636  0.54511066  0.46170366    -0.84800
O780        O  0.42067951  0.44384091  0.49617703    -0.85200
O781        O  0.41034832  0.62202464  0.52022086    -0.84900
O782        O  0.51900626  0.62711447  0.52458484    -0.84600
O783        O  0.53538320  0.44876160  0.50072531    -0.85000
O784        O  0.47749646  0.49860877  0.40947145    -0.85300
O785        O  0.47493506  0.60196997  0.42555416    -0.86600
Zr786      Zr  0.47658724  0.47074334  0.49951647     2.83100
Zr787      Zr  0.46688676  0.59857253  0.51929181     2.83500
Zr788      Zr  0.40517498  0.53248631  0.50650348     2.84100
Zr789      Zr  0.53981884  0.53916401  0.51357445     2.83400
Zr790      Zr  0.47439700  0.54583206  0.44372330     2.84200
O791        O  0.50464575  0.57342687  0.48385653    -1.07200
O792        O  0.44272277  0.50736671  0.47082979    -1.06700
C793        C  0.47794036  0.46834440  0.41318014     1.08000
C794        C  0.47432353  0.62913649  0.44045616     1.10600
C795        C  0.38928563  0.45289218  0.49665717     1.08100
C796        C  0.56538639  0.46043386  0.50458723     1.08500
C797        C  0.55064710  0.62084099  0.52283419     1.08100
C798        C  0.38035868  0.61073155  0.51809172     1.07600
C799        C  0.38830016  0.54279154  0.42390352     1.08100
C800        C  0.56135720  0.54836958  0.43118648     1.07600
H801        H  0.42220416  0.58505850  0.46762739     0.34300
O802        O  0.43665584  0.57079329  0.47954809    -1.28300
H803        H  0.52395984  0.50017033  0.45971583     0.34300
O804        O  0.50854576  0.51059692  0.47432633    -1.29700
C805        C  0.31805069  0.40176254  0.52554234     0.25000
C806        C  0.29603126  0.40141067  0.49816964    -0.23100
C807        C  0.30928566  0.41328235  0.46860297     0.19900
C808        C  0.34114258  0.42739094  0.46744765     0.24900
C809        C  0.36159801  0.42942212  0.49528317    -0.23100
C810        C  0.35002756  0.41570843  0.52407664     0.19800
F811        F  0.36870453  0.41803177  0.55172149    -0.13000
F812        F  0.30853571  0.38985304  0.55448668    -0.15400
F813        F  0.35110438  0.44112746  0.43937254    -0.15400
F814        F  0.29089715  0.41342772  0.44085902    -0.13000
C815        C  0.31900781  0.67583312  0.49588887     0.25000
C816        C  0.29019156  0.66684993  0.51317371    -0.23100
C817        C  0.29333469  0.64228226  0.53598912     0.19900
C818        C  0.32359065  0.62553048  0.53925179     0.24900
C819        C  0.35135482  0.63280228  0.51985851    -0.23100
C820        C  0.34935342  0.65913736  0.49940530     0.19800
F821        F  0.37608585  0.66738397  0.48109545    -0.13000
F822        F  0.31759437  0.70005211  0.47463105    -0.15400
F823        F  0.32556574  0.60153190  0.56080989    -0.15400
F824        F  0.26641062  0.63281792  0.55336874    -0.13000
C825        C  0.65327454  0.43268215  0.48158822     0.25000
C826        C  0.66057342  0.40826077  0.50403231    -0.23100
C827        C  0.63436103  0.39940919  0.52520169     0.19900
C828        C  0.60252677  0.41468413  0.52425514     0.24900
C829        C  0.59603774  0.43951401  0.50236964    -0.23100
C830        C  0.62178063  0.44782601  0.48085127     0.19800
F831        F  0.61676108  0.47173228  0.45949425    -0.13000
F832        F  0.67730364  0.44370310  0.46151167    -0.15400
F833        F  0.57875653  0.40640620  0.54605090    -0.15400
F834        F  0.63975337  0.37658798  0.54758416    -0.13000
C835        C  0.57994249  0.70539341  0.53278733     0.25000
C836        C  0.61125760  0.70490670  0.51719692    -0.23100
C837        C  0.62429110  0.67559883  0.50672827     0.19900
C838        C  0.60558938  0.64784415  0.51004921     0.24900
C839        C  0.57347660  0.64867284  0.52424584    -0.23100
C840        C  0.56161474  0.67775391  0.53673041     0.19800
F841        F  0.53131008  0.67996397  0.55152562    -0.13000
F842        F  0.56558661  0.73315731  0.54182316    -0.15400
F843        F  0.61810702  0.62060681  0.49744717    -0.15400
F844        F  0.65462512  0.67388335  0.49210394    -0.13000
C845        C  0.32938182  0.55789831  0.40869534     0.25000
C846        C  0.36036878  0.54444039  0.39944190    -0.23100
C847        C  0.36227685  0.52918709  0.36897473     0.19900
C848        C  0.33314424  0.52501294  0.34971728     0.24900
C849        C  0.30162979  0.53664759  0.36019140    -0.23100
C850        C  0.30054093  0.55393692  0.38953108     0.19800
F851        F  0.27084584  0.56485229  0.40118609    -0.13000
F852        F  0.32662976  0.57396045  0.43726651    -0.15400
F853        F  0.33565733  0.50863888  0.32142074    -0.15400
F854        F  0.39182346  0.51655349  0.35879372    -0.13000
C855        C  0.46553041  0.69487483  0.37608146     0.25000
C856        C  0.48356821  0.71974037  0.39089300    -0.23100
C857        C  0.50024450  0.71329283  0.42054749     0.19900
C858        C  0.49793479  0.68374751  0.43546330     0.24900
C859        C  0.47894930  0.65918066  0.42148596    -0.23100
C860        C  0.46356879  0.66486311  0.39097374     0.19800
F861        F  0.44519224  0.64198202  0.37634963    -0.13000
F862        F  0.44895095  0.69991773  0.34762753    -0.15400
F863        F  0.51409225  0.67939019  0.46429019    -0.15400
F864        F  0.51715977  0.73632209  0.43653511    -0.13000
C865        C  0.61677326  0.53754061  0.35553612     0.25000
C866        C  0.64880600  0.54416560  0.36832448    -0.23100
C867        C  0.65109214  0.55524343  0.40058735     0.19900
C868        C  0.62265776  0.55775185  0.42025423     0.24900
C869        C  0.59057023  0.54979830  0.40821732    -0.23100
C870        C  0.58787700  0.54088626  0.37507894     0.19800
F871        F  0.55755411  0.53400582  0.36191316    -0.13000
F872        F  0.61355088  0.52701583  0.32444263    -0.15400
F873        F  0.62695919  0.56718135  0.45162341    -0.15400
F874        F  0.68148890  0.56175287  0.41390777    -0.13000
C875        C  0.46187480  0.40408861  0.34848471     0.25000
C876        C  0.47920800  0.41574464  0.32114734    -0.23100
C877        C  0.49659232  0.44440676  0.32518899     0.19900
C878        C  0.49663731  0.46062255  0.35504635     0.24900
C879        C  0.47943153  0.44905972  0.38230914    -0.23100
C880        C  0.46229103  0.42033159  0.37868597     0.19800
F881        F  0.44452367  0.40867921  0.40393649    -0.13000
F882        F  0.44388432  0.37727959  0.34603315    -0.15400
F883        F  0.51349887  0.48814516  0.35706686    -0.15400
F884        F  0.51237591  0.45787686  0.29968022    -0.13000
C885        C  0.62751114  0.52934623  0.65875023     0.25000
C886        C  0.61259032  0.54158639  0.68733865    -0.23100
C887        C  0.57955922  0.55333653  0.68507215     0.19900
C888        C  0.56162111  0.55206773  0.65575080     0.24900
C889        C  0.57561322  0.53826804  0.62753302    -0.23100
C890        C  0.60920801  0.52764485  0.62913343     0.19800
F891        F  0.62364015  0.51391746  0.60272171    -0.13000
F892        F  0.65938550  0.51798637  0.65979753    -0.15400
F893        F  0.52976997  0.56366774  0.65535851    -0.15400
F894        F  0.56341163  0.56381848  0.71207326    -0.13000
C895        C  0.48925020  0.41705527  0.63595491     0.25000
C896        C  0.47664766  0.41489116  0.60367384    -0.23100
C897        C  0.46432970  0.38542532  0.59331417     0.19900
C898        C  0.46459424  0.35918572  0.61419888     0.24900
C899        C  0.47731261  0.36128901  0.64643905    -0.23100
C900        C  0.48974862  0.39063127  0.65681468     0.19800
F901        F  0.50277187  0.39359286  0.68725315    -0.13000
F902        F  0.50210109  0.44457918  0.64719269    -0.15400
F903        F  0.45309016  0.33141048  0.60231651    -0.15400
F904        F  0.45151528  0.38191455  0.56283391    -0.13000
C905        C  0.29989602  0.54136681  0.63059744     0.25000
C906        C  0.30887779  0.53738486  0.66337878    -0.23100
C907        C  0.34189984  0.52852079  0.67118361     0.19900
C908        C  0.36571039  0.52396146  0.64681400     0.24900
C909        C  0.35727084  0.52861082  0.61371385    -0.23100
C910        C  0.32378296  0.53715008  0.60596816     0.19800
F911        F  0.31389720  0.54142520  0.57463972    -0.13000
F912        F  0.26762969  0.54816827  0.62240095    -0.15400
F913        F  0.39711870  0.51500965  0.65598519    -0.15400
F914        F  0.35125933  0.52450209  0.70270916    -0.13000
C915        C  0.44918958  0.62305929  0.69170579     0.25000
C916        C  0.46992446  0.64938337  0.69615052    -0.23100
C917        C  0.48562141  0.66251591  0.66881047     0.19900
C918        C  0.48215800  0.64835237  0.63800290     0.24900
C919        C  0.46290370  0.62092546  0.63417223    -0.23100
C920        C  0.44556122  0.60915886  0.66112883     0.19800
F921        F  0.42596862  0.58327591  0.65814143    -0.13000
F922        F  0.43410996  0.60938985  0.71750338    -0.15400
F923        F  0.49934359  0.66022089  0.61248155    -0.15400
F924        F  0.50472834  0.68863596  0.67194618    -0.13000
C925        C  0.66553661  0.74399439  0.56954247     0.25000
C926        C  0.64013450  0.76462052  0.55868473    -0.23100
C927        C  0.63212132  0.79128499  0.57800104     0.19900
C928        C  0.64956940  0.79740888  0.60700897     0.24900
C929        C  0.67476598  0.77665350  0.61769572    -0.23100
C930        C  0.68223929  0.74969967  0.59891439     0.19800
F931        F  0.70629058  0.72899583  0.60881488    -0.13000
F932        F  0.67560228  0.71912025  0.55105756    -0.15400
F933        F  0.64091295  0.82292839  0.62527882    -0.15400
F934        F  0.60733603  0.81153298  0.56886275    -0.13000
C935        C  0.68931189  0.62205510  0.73601121     0.25000
C936        C  0.68021510  0.64329169  0.76114451    -0.23100
C937        C  0.65056201  0.63760107  0.77835683     0.19900
C938        C  0.63062726  0.61138244  0.77071972     0.24900
C939        C  0.64048639  0.58938933  0.74645776    -0.23100
C940        C  0.66978074  0.59553520  0.72881784     0.19800
F941        F  0.68039842  0.57525064  0.70533711    -0.13000
F942        F  0.71750931  0.62683823  0.71838948    -0.15400
F943        F  0.60137020  0.60768801  0.78696695    -0.15400
F944        F  0.63998710  0.65824670  0.80155989    -0.13000
C945        C  0.56098027  0.72660522  0.73572620     0.25000
C946        C  0.59242767  0.71335224  0.72832055    -0.23100
C947        C  0.59466176  0.68083047  0.72099313     0.19900
C948        C  0.56661651  0.66152908  0.72470952     0.24900
C949        C  0.53598743  0.67479709  0.73438516    -0.23100
C950        C  0.53317736  0.70749424  0.73894686     0.19800
F951        F  0.50380155  0.72072133  0.74884087    -0.13000
F952        F  0.55729764  0.75800049  0.74125045    -0.15400
F953        F  0.56969469  0.62995986  0.72030268    -0.15400
F954        F  0.62424993  0.66741273  0.71209255    -0.13000
C955        C  0.71790256  0.33156678  0.59081669     0.25000
C956        C  0.73365243  0.34462801  0.61843555    -0.23100
C957        C  0.73774204  0.37736442  0.62005721     0.19900
C958        C  0.72750110  0.39658044  0.59420150     0.24900
C959        C  0.71375230  0.38350221  0.56548012    -0.23100
C960        C  0.70883349  0.35063334  0.56426775     0.19800
F961        F  0.69605297  0.33671264  0.53720771    -0.13000
F962        F  0.71079039  0.30035908  0.58981231    -0.15400
F963        F  0.73182039  0.42817184  0.59685146    -0.15400
F964        F  0.75017306  0.39093996  0.64754691    -0.13000
C965        C  0.59334502  0.33061913  0.70360702     0.25000
C966        C  0.59144264  0.31340958  0.73315651    -0.23100
C967        C  0.56053887  0.29989114  0.74120007     0.19900
C968        C  0.53294241  0.30283044  0.71989278     0.24900
C969        C  0.53579999  0.31931656  0.69023005    -0.23100
C970        C  0.56577640  0.33394870  0.68293002     0.19800
F971        F  0.56900132  0.35002480  0.65464513    -0.13000
F972        F  0.62262813  0.34253356  0.69295979    -0.15400
F973        F  0.50378313  0.28846284  0.72754738    -0.15400
F974        F  0.55718340  0.28323468  0.76906810    -0.13000
C975        C  0.63774997  0.42115532  0.72003826     0.25000
C976        C  0.67298083  0.41884646  0.72156852    -0.23100
C977        C  0.69184274  0.44665916  0.72069650     0.19900
C978        C  0.67573089  0.47615684  0.72061392     0.24900
C979        C  0.64050322  0.47833501  0.72097693    -0.23100
C980        C  0.62170136  0.45060428  0.71932213     0.19800
F981        F  0.58767642  0.45205461  0.71995437    -0.13000
F982        F  0.61865896  0.39516114  0.72310716    -0.15400
F983        F  0.69448652  0.50257137  0.72358170    -0.15400
F984        F  0.72585709  0.44528667  0.72182197    -0.13000
C985        C  0.20639104  0.72600094  0.60231877     0.25000
C986        C  0.22830547  0.75170299  0.60281818    -0.23100
C987        C  0.25267691  0.75417909  0.57847214     0.19900
C988        C  0.25483094  0.73146843  0.55370108     0.24900
C989        C  0.23294555  0.70551162  0.55326571    -0.23100
C990        C  0.20872714  0.70313658  0.57791120     0.19800
F991        F  0.18730416  0.67846376  0.57855011    -0.13000
F992        F  0.18384430  0.72203803  0.62658222    -0.15400
F993        F  0.27752142  0.73564188  0.52966472    -0.15400
F994        F  0.27429058  0.77872858  0.57868021    -0.13000
C995        C  0.39510637  0.67225784  0.77031021     0.25000
C996        C  0.42175452  0.67916216  0.74933019    -0.23100
C997        C  0.41908231  0.70546064  0.72866973     0.19900
C998        C  0.39069807  0.72473947  0.72963916     0.24900
C999        C  0.36492275  0.71863631  0.75179800    -0.23100
C1000       C  0.36723209  0.69227711  0.77210679     0.19800
F1001       F  0.34225294  0.68560636  0.79324176    -0.13000
F1002       F  0.39617720  0.64615696  0.78919307    -0.15400
F1003       F  0.38900924  0.75023862  0.70983592    -0.15400
F1004       F  0.44457893  0.71377059  0.70882188    -0.13000
C1005       C  0.28836639  0.64763878  0.68627060     0.25000
C1006       C  0.25635801  0.66145576  0.68327099    -0.23100
C1007       C  0.22891605  0.64261895  0.67450298     0.19900
C1008       C  0.23256160  0.60999720  0.67314305     0.24900
C1009       C  0.26349803  0.59591677  0.68104117    -0.23100
C1010       C  0.29187770  0.61484619  0.68550742     0.19800
F1011       F  0.32175581  0.60174042  0.69417592    -0.13000
F1012       F  0.31523381  0.66542781  0.69467740    -0.15400
F1013       F  0.20492309  0.59196589  0.66852744    -0.15400
F1014       F  0.19788207  0.65555886  0.67067815    -0.13000
C1015       C  0.23311765  0.34009226  0.59127454     0.25000
C1016       C  0.22086816  0.35758293  0.61795810    -0.23100
C1017       C  0.22046240  0.39057632  0.61607227     0.19900
C1018       C  0.23078472  0.40572306  0.58766171     0.24900
C1019       C  0.24114534  0.38825266  0.56020045    -0.23100
C1020       C  0.24270250  0.35517635  0.56248718     0.19800
F1021       F  0.25256062  0.33737302  0.53666744    -0.13000
F1022       F  0.23615858  0.30829172  0.59334311    -0.15400
F1023       F  0.22982931  0.43766353  0.58649064    -0.15400
F1024       F  0.21099839  0.40821838  0.64214724    -0.13000
C1025       C  0.28436123  0.46531583  0.68649855     0.25000
C1026       C  0.29111672  0.48599656  0.71241753    -0.23100
C1027       C  0.30328740  0.47421500  0.74203876     0.19900
C1028       C  0.30318902  0.44194240  0.74758992     0.24900
C1029       C  0.29157189  0.42140700  0.72320509    -0.23100
C1030       C  0.28533689  0.43292678  0.69173212     0.19800
F1031       F  0.27536908  0.41329132  0.66743689    -0.13000
F1032       F  0.27220773  0.47628094  0.65774280    -0.15400
F1033       F  0.31104108  0.43103378  0.77771025    -0.15400
F1034       F  0.31163020  0.49416894  0.76668273    -0.13000
C1035       C  0.38494227  0.33419377  0.72235790     0.25000
C1036       C  0.37638891  0.30524158  0.73677141    -0.23100
C1037       C  0.39751481  0.27924101  0.73204105     0.19900
C1038       C  0.42460495  0.28121293  0.71057863     0.24900
C1039       C  0.43032252  0.30913557  0.69245387    -0.23100
C1040       C  0.41127090  0.33600684  0.70016492     0.19800
F1041       F  0.41645310  0.36359781  0.68458307    -0.13000
F1042       F  0.36510585  0.36000171  0.72687343    -0.15400
F1043       F  0.44460007  0.25538897  0.70736085    -0.15400
F1044       F  0.39002864  0.25107570  0.74555899    -0.13000
C1045       C  0.14904615  0.15028378  0.03594994     0.25000
C1046       C  0.15977323  0.16438941  0.00638992    -0.23100
C1047       C  0.13530995  0.16657308  0.98118183     0.19900
C1048       C  0.10342138  0.15258744  0.98415000     0.24900
C1049       C  0.09435064  0.13654698  0.01255466    -0.23100
C1050       C  0.11703894  0.13682721  0.03878054     0.19800
F1051       F  0.10895063  0.12200089  0.06683802    -0.13000
F1052       F  0.16988798  0.14711296  0.06188063    -0.15400
F1053       F  0.08225527  0.15284249  0.95819839    -0.15400
F1054       F  0.14225776  0.18117388  0.95286455    -0.13000
C1055       C  0.20514232  0.21881564  0.94432109     0.25000
C1056       C  0.20915005  0.18585159  0.94195102    -0.23100
C1057       C  0.21878917  0.17286066  0.91166987     0.19900
C1058       C  0.22621470  0.19229896  0.88521665     0.24900
C1059       C  0.22395612  0.22518302  0.88826702    -0.23100
C1060       C  0.21230865  0.23820395  0.91770091     0.19800
F1061       F  0.20840426  0.26987300  0.92079868    -0.13000
F1062       F  0.19536201  0.23246455  0.97266218    -0.15400
F1063       F  0.23446094  0.17894790  0.85619206    -0.15400
F1064       F  0.22178734  0.14117691  0.90799481    -0.13000
C1065       C  0.63775419  0.72323141  0.38944849     0.25000
C1066       C  0.67300469  0.72603786  0.38834097    -0.23100
C1067       C  0.69149393  0.72410365  0.41747193     0.19900
C1068       C  0.67497671  0.72457680  0.44731729     0.24900
C1069       C  0.63977971  0.72666952  0.44828425    -0.23100
C1070       C  0.62131514  0.72344458  0.41940897     0.19800
F1071       F  0.58729676  0.72457771  0.42014401    -0.13000
F1072       F  0.61890883  0.72430583  0.36184053    -0.15400
F1073       F  0.69341889  0.72745408  0.47505822    -0.15400
F1074       F  0.72553749  0.72485471  0.41710986    -0.13000
C1075       C  0.56313585  0.79586798  0.37507508     0.25000
C1076       C  0.53701962  0.77558050  0.36501969    -0.23100
C1077       C  0.53886307  0.76197830  0.33376699     0.19900
C1078       C  0.56488674  0.76978817  0.31262425     0.24900
C1079       C  0.59006562  0.79108863  0.32214336    -0.23100
C1080       C  0.58906910  0.80386813  0.35372582     0.19800
F1081       F  0.61418516  0.82270672  0.36455517    -0.13000
F1082       F  0.56380834  0.80766387  0.40586270    -0.15400
F1083       F  0.56590982  0.75597327  0.28273859    -0.15400
F1084       F  0.51521098  0.74147116  0.32322108    -0.13000
C1085       C  0.73823251  0.63579180  0.32700455     0.25000
C1086       C  0.71864384  0.64307251  0.29951178    -0.23100
C1087       C  0.69209586  0.62276337  0.29098485     0.19900
C1088       C  0.68656626  0.59491524  0.30840893     0.24900
C1089       C  0.70689519  0.58711011  0.33530025    -0.23100
C1090       C  0.73231535  0.60831385  0.34478614     0.19800
F1091       F  0.75174875  0.60229348  0.37131369    -0.13000
F1092       F  0.76233523  0.65593091  0.33745885    -0.15400
F1093       F  0.66252387  0.57480958  0.29781549    -0.15400
F1094       F  0.67186316  0.62955455  0.26523097    -0.13000
C1095       C  0.74642113  0.36542665  0.40115447     0.25000
C1096       C  0.73055948  0.33612124  0.39964984    -0.23100
C1097       C  0.70738131  0.32855942  0.42418060     0.19900
C1098       C  0.70153282  0.34922809  0.45046612     0.24900
C1099       C  0.71791998  0.37845267  0.45230583    -0.23100
C1100       C  0.73945738  0.38665319  0.42649249     0.19800
F1101       F  0.75359340  0.41559504  0.42539938    -0.13000
F1102       F  0.76723698  0.37437845  0.37691844    -0.15400
F1103       F  0.68036241  0.34021836  0.47431680    -0.15400
F1104       F  0.69045490  0.30096622  0.42275949    -0.13000
C1105       C  0.67974276  0.41936920  0.34823988     0.25000
C1106       C  0.68358766  0.41574188  0.31433687    -0.23100
C1107       C  0.68045916  0.44250244  0.29449976     0.19900
C1108       C  0.67713182  0.47254385  0.30840460     0.24900
C1109       C  0.67794843  0.47648353  0.34239544    -0.23100
C1110       C  0.67765625  0.44957940  0.36216760     0.19800
F1111       F  0.67917239  0.45271344  0.39501889    -0.13000
F1112       F  0.68152228  0.39399432  0.36813328    -0.15400
F1113       F  0.67806247  0.49808381  0.28871518    -0.15400
F1114       F  0.68279348  0.43978033  0.26164880    -0.13000
C1115       C  0.56369887  0.33626759  0.28148956     0.25000
C1116       C  0.58740611  0.34130019  0.25681298    -0.23100
C1117       C  0.58481982  0.36875047  0.23817946     0.19900
C1118       C  0.55893576  0.39055695  0.24381843     0.24900
C1119       C  0.53365613  0.38463527  0.26706032    -0.23100
C1120       C  0.53706850  0.35752924  0.28646600     0.19800
F1121       F  0.51447952  0.35110556  0.30998334    -0.13000
F1122       F  0.56625175  0.31046762  0.30074543    -0.15400
F1123       F  0.55901320  0.41774668  0.22661520    -0.15400
F1124       F  0.60836104  0.37527001  0.21547001    -0.13000
C1125       C  0.25825319  0.67765904  0.38541425     0.25000
C1126       C  0.25770718  0.71065389  0.38247721    -0.23100
C1127       C  0.25789838  0.72957940  0.41051275     0.19900
C1128       C  0.25612206  0.71591447  0.44103337     0.24900
C1129       C  0.25450732  0.68299894  0.44410496    -0.23100
C1130       C  0.25626366  0.66388208  0.41620977     0.19800
F1131       F  0.25351303  0.63216127  0.41871122    -0.13000
F1132       F  0.25767359  0.65894755  0.35853130    -0.15400
F1133       F  0.25284284  0.73502998  0.46743154    -0.15400
F1134       F  0.25778166  0.76148720  0.40823543    -0.13000
C1135       C  0.25585824  0.61007915  0.28053016     0.25000
C1136       C  0.22851636  0.63043613  0.28672110    -0.23100
C1137       C  0.20700605  0.62353238  0.31262554     0.19900
C1138       C  0.21300401  0.59708805  0.33216446     0.24900
C1139       C  0.24018316  0.57645648  0.32571407    -0.23100
C1140       C  0.26143607  0.58326359  0.29955581     0.19800
F1141       F  0.28700388  0.56344393  0.29158889    -0.13000
F1142       F  0.27747216  0.61638552  0.25604332    -0.15400
F1143       F  0.19241627  0.59189172  0.35777422    -0.15400
F1144       F  0.18146233  0.64349975  0.32037798    -0.13000
C1145       C  0.39810638  0.77753908  0.30870149     0.25000
C1146       C  0.36578100  0.77393057  0.32128206    -0.23100
C1147       C  0.36186465  0.76572709  0.35415721     0.19900
C1148       C  0.38988723  0.76208221  0.37450017     0.24900
C1149       C  0.42228372  0.76547322  0.36196511    -0.23100
C1150       C  0.42618214  0.77325012  0.32888278     0.19800
F1151       F  0.45716280  0.77841229  0.31658625    -0.13000
F1152       F  0.40247516  0.78494589  0.27690971    -0.15400
F1153       F  0.38541404  0.75614410  0.40660786    -0.15400
F1154       F  0.33071124  0.76181409  0.36662763    -0.13000
C1155       C  0.16140672  0.00450640  0.11650903     0.25000
C1156       C  0.16074162  0.01665606  0.14839327    -0.23100
C1157       C  0.12949085  0.02546719  0.16161449     0.19900
C1158       C  0.09990168  0.02413267  0.14252564     0.24900
C1159       C  0.10107601  0.01409196  0.10971494    -0.23100
C1160       C  0.13206104  0.00264947  0.09775906     0.19800
F1161       F  0.13427829  0.99042402  0.06721344    -0.13000
F1162       F  0.19110258  0.99670080  0.10247171    -0.15400
F1163       F  0.07060688  0.03414543  0.15570603    -0.15400
F1164       F  0.12778963  0.03645255  0.19261023    -0.13000
C1165       C  0.20676347  0.93671538  0.22314406     0.25000
C1166       C  0.22949419  0.91440381  0.21040759    -0.23100
C1167       C  0.24737604  0.92155947  0.18215500     0.19900
C1168       C  0.24261147  0.95053178  0.16674499     0.24900
C1169       C  0.21977488  0.97293264  0.17927103    -0.23100
C1170       C  0.20215161  0.96588997  0.20786208     0.19800
F1171       F  0.18174463  0.98777059  0.22186742    -0.13000
F1172       F  0.18940464  0.93034592  0.25064992    -0.15400
F1173       F  0.26029670  0.95670358  0.13940416    -0.15400
F1174       F  0.26809597  0.89973744  0.16846500    -0.13000
C1175       C  0.25047830  0.32363471  0.42030861     0.25000
C1176       C  0.22707934  0.32969470  0.39524032    -0.23100
C1177       C  0.20926403  0.35826293  0.39573215     0.19900
C1178       C  0.21461213  0.38031172  0.42059071     0.24900
C1179       C  0.23663982  0.37371670  0.44692094    -0.23100
C1180       C  0.25466725  0.34503254  0.44625462     0.19800
F1181       F  0.27621131  0.33745672  0.47069824    -0.13000
F1182       F  0.26953985  0.29701989  0.41949421    -0.15400
F1183       F  0.19884771  0.40864693  0.41805138    -0.15400
F1184       F  0.18845290  0.36597251  0.37066817    -0.13000
C1185       C  0.42214691  0.35209744  0.28085373     0.25000
C1186       C  0.41788133  0.38419434  0.27303227    -0.23100
C1187       C  0.38727484  0.39381040  0.25860058     0.19900
C1188       C  0.36267592  0.37175932  0.25041063     0.24900
C1189       C  0.36760896  0.33974977  0.25728073    -0.23100
C1190       C  0.39701656  0.33027665  0.27357807     0.19800
F1191       F  0.40178585  0.29960756  0.28169500    -0.13000
F1192       F  0.45134150  0.34126097  0.29373678    -0.15400
F1193       F  0.33355418  0.38178436  0.23649885    -0.15400
F1194       F  0.38188994  0.42450694  0.25094246    -0.13000
C1195       C  0.28077211  0.46480882  0.30303494     0.25000
C1196       C  0.27594109  0.46844715  0.33672494    -0.23100
C1197       C  0.27637250  0.44178227  0.35664120     0.19900
C1198       C  0.27864643  0.41165283  0.34286211     0.24900
C1199       C  0.27935365  0.40794631  0.30877847    -0.23100
C1200       C  0.28240379  0.43474284  0.28914083     0.19800
F1201       F  0.28381529  0.43185242  0.25623717    -0.13000
F1202       F  0.27912825  0.49019403  0.28311790    -0.15400
F1203       F  0.27569354  0.38626498  0.36253609    -0.15400
F1204       F  0.27012422  0.44490093  0.38891571    -0.13000
C1205       C  0.20735401  0.23387695  0.08775143     0.25000
C1206       C  0.23194682  0.22618276  0.11114940    -0.23100
C1207       C  0.25081681  0.19846297  0.10704728     0.19900
C1208       C  0.24536375  0.17893533  0.07994243     0.24900
C1209       C  0.22196854  0.18749931  0.05536291    -0.23100
C1210       C  0.20297871  0.21526331  0.05985136     0.19800
F1211       F  0.18039269  0.22486481  0.03713750    -0.13000
F1212       F  0.18724247  0.25949921  0.09207593    -0.15400
F1213       F  0.26238052  0.15115482  0.07844392    -0.15400
F1214       F  0.27288201  0.18911090  0.13045262    -0.13000
C1215       C  0.18957139  0.10956400  0.14894311     0.25000
C1216       C  0.18814651  0.08378374  0.17011762    -0.23100
C1217       C  0.18142635  0.08909104  0.20323625     0.19900
C1218       C  0.18074815  0.11976877  0.21568570     0.24900
C1219       C  0.18536624  0.14560731  0.19499072    -0.23100
C1220       C  0.18738822  0.14037576  0.16120218     0.19800
F1221       F  0.19136919  0.16485257  0.14055606    -0.13000
F1222       F  0.19691873  0.10487495  0.11703808    -0.15400
F1223       F  0.17862740  0.12412602  0.24839196    -0.15400
F1224       F  0.18034605  0.06459859  0.22430046    -0.13000
C1225       C  0.00194638  0.11873627  0.18442360     0.25000
C1226       C  0.98065620  0.14488265  0.19055204    -0.23100
C1227       C  0.96058649  0.15599261  0.16447996     0.19900
C1228       C  0.96143606  0.14110773  0.13355561     0.24900
C1229       C  0.98164303  0.11421209  0.12826903    -0.23100
C1230       C  0.00215557  0.10367113  0.15405427     0.19800
F1231       F  0.02248781  0.07819997  0.14999254    -0.13000
F1232       F  0.02173645  0.10652381  0.20827348    -0.15400
F1233       F  0.94137386  0.15211517  0.10929776    -0.15400
F1234       F  0.93982144  0.18103329  0.16897826    -0.13000
C1235       C  0.92397061  0.20623201  0.23764672     0.25000
C1236       C  0.91960268  0.17353715  0.24139527    -0.23100
C1237       C  0.88868492  0.16277630  0.25342042     0.19900
C1238       C  0.86341924  0.18420753  0.26252309     0.24900
C1239       C  0.86833145  0.21672511  0.25917270    -0.23100
C1240       C  0.89833550  0.22743167  0.24571818     0.19800
F1241       F  0.90280145  0.25865640  0.24045488    -0.13000
F1242       F  0.95364568  0.21804231  0.22783305    -0.15400
F1243       F  0.83369511  0.17320779  0.27352150    -0.15400
F1244       F  0.88342762  0.13147789  0.25729329    -0.13000
C1245       C  0.06192763  0.22439382  0.22939892     0.25000
C1246       C  0.08720339  0.21886202  0.25276321    -0.23100
C1247       C  0.08730498  0.19034882  0.26977007     0.19900
C1248       C  0.06182494  0.16840595  0.26470379     0.24900
C1249       C  0.03484720  0.17493521  0.24329192    -0.23100
C1250       C  0.03609446  0.20262356  0.22457387     0.19800
F1251       F  0.01219087  0.20908741  0.20193769    -0.13000
F1252       F  0.06213844  0.25109876  0.21137735    -0.15400
F1253       F  0.06381150  0.14053742  0.28063676    -0.15400
F1254       F  0.11303328  0.18306162  0.29025807    -0.13000
C1255       C  0.71907697  0.93278925  0.19676828     0.25000
C1256       C  0.74288988  0.92458853  0.22059095    -0.23100
C1257       C  0.77227526  0.94277425  0.22317376     0.19900
C1258       C  0.77648472  0.96989781  0.20415260     0.24900
C1259       C  0.75219619  0.97865645  0.18079709    -0.23100
C1260       C  0.72408432  0.95880767  0.17656522     0.19800
F1261       F  0.70146668  0.96413413  0.15235179    -0.13000
F1262       F  0.69184284  0.91437198  0.19155926    -0.15400
F1263       F  0.80395376  0.98791004  0.20933401    -0.15400
F1264       F  0.79707983  0.93421778  0.24418093    -0.13000
C1265       C  0.78075424  0.11633012  0.15240162     0.25000
C1266       C  0.78034887  0.08901863  0.17158777    -0.23100
C1267       C  0.78148189  0.09240123  0.20567184     0.19900
C1268       C  0.77956141  0.12233156  0.22025513     0.24900
C1269       C  0.77671330  0.14963035  0.20106377    -0.23100
C1270       C  0.77914998  0.14635582  0.16695919     0.19800
F1271       F  0.77687268  0.17201005  0.14752046    -0.13000
F1272       F  0.77973405  0.11383045  0.11945308    -0.15400
F1273       F  0.77872831  0.12447752  0.25322676    -0.15400
F1274       F  0.78060710  0.06651967  0.22489690    -0.13000
C1275       C  0.83926488  0.99969921  0.09773689     0.25000
C1276       C  0.86932601  0.01537913  0.10560220    -0.23100
C1277       C  0.87048245  0.03262432  0.13505213     0.19900
C1278       C  0.84181852  0.03555664  0.15496917     0.24900
C1279       C  0.81130269  0.02108853  0.14622126    -0.23100
C1280       C  0.81100221  0.00200041  0.11794973     0.19800
F1281       F  0.78260752  0.98694253  0.10861088    -0.13000
F1282       F  0.83678223  0.98271366  0.06976319    -0.15400
F1283       F  0.84369602  0.05320025  0.18251622    -0.15400
F1284       F  0.89867493  0.04846021  0.14352642    -0.13000
C1285       C  0.03615379  0.79985416  0.16919293     0.25000
C1286       C  0.03126956  0.78395217  0.13938913    -0.23100
C1287       C  0.05666432  0.76288212  0.12861127     0.19900
C1288       C  0.08503753  0.75677872  0.14790350     0.24900
C1289       C  0.08896359  0.77192308  0.17802957    -0.23100
C1290       C  0.06462722  0.79385641  0.18821970     0.19800
F1291       F  0.06851147  0.80955207  0.21687233    -0.13000
F1292       F  0.01327952  0.82089398  0.18047901    -0.15400
F1293       F  0.10942454  0.73720296  0.13646851    -0.15400
F1294       F  0.05459026  0.74863760  0.09901733    -0.13000
C1295       C  0.92125774  0.80015791  0.17667120     0.25000
C1296       C  0.91618844  0.79355015  0.14332926    -0.23100
C1297       C  0.88564820  0.77947968  0.13394502     0.19900
C1298       C  0.86155602  0.77134476  0.15698404     0.24900
C1299       C  0.86705830  0.77756231  0.19012882    -0.23100
C1300       C  0.89702271  0.79226850  0.19970223     0.19800
F1301       F  0.90312271  0.79854438  0.23162861    -0.13000
F1302       F  0.94999391  0.81348212  0.18742001    -0.15400
F1303       F  0.83220019  0.75859626  0.14668030    -0.15400
F1304       F  0.87938760  0.77306700  0.10222000    -0.13000
C1305       C  0.95805619  0.86673084  0.12563116     0.25000
C1306       C  0.98034697  0.84182281  0.11694593    -0.23100
C1307       C  0.00706984  0.84948580  0.09582905     0.19900
C1308       C  0.01115630  0.88006007  0.08396822     0.24900
C1309       C  0.98828357  0.90433986  0.09140741    -0.23100
C1310       C  0.96217186  0.89755282  0.11320968     0.19800
F1311       F  0.93939454  0.92026979  0.12098623    -0.13000
F1312       F  0.93137947  0.86128662  0.14502355    -0.15400
F1313       F  0.03732270  0.88567175  0.06393758    -0.15400
F1314       F  0.02820433  0.82698476  0.08416170    -0.13000
C1315       C  0.23214368  0.97833889  0.83137745     0.25000
C1316       C  0.20033102  0.99211259  0.82626816    -0.23100
C1317       C  0.17274450  0.97250287  0.82020136     0.19900
C1318       C  0.17776286  0.94025748  0.81491417     0.24900
C1319       C  0.21046861  0.92751509  0.81481609    -0.23100
C1320       C  0.23731133  0.94632305  0.82516660     0.19800
F1321       F  0.26889114  0.93421211  0.82700052    -0.13000
F1322       F  0.25896707  0.99664645  0.83866304    -0.15400
F1323       F  0.15116445  0.92240118  0.80582124    -0.15400
F1324       F  0.14175924  0.98489326  0.81479894    -0.13000
C1325       C  0.15832140  0.12258351  0.82689238     0.25000
C1326       C  0.15926485  0.10062016  0.80121378    -0.23100
C1327       C  0.14975569  0.11006015  0.76985989     0.19900
C1328       C  0.14728960  0.14189640  0.76264749     0.24900
C1329       C  0.15284306  0.16445308  0.78720514    -0.23100
C1330       C  0.15441271  0.15464123  0.81990339     0.19800
F1331       F  0.15732902  0.17599022  0.84447139    -0.13000
F1332       F  0.16565659  0.11370217  0.85782855    -0.15400
F1333       F  0.14408109  0.15058067  0.73101482    -0.15400
F1334       F  0.14801139  0.08862047  0.74525947    -0.13000
C1335       C  0.09009262  0.05166294  0.86433876     0.25000
C1336       C  0.09870894  0.04512876  0.89706884    -0.23100
C1337       C  0.13263764  0.03854687  0.90465019     0.19900
C1338       C  0.15694735  0.03804147  0.88028318     0.24900
C1339       C  0.14821603  0.04474714  0.84796854    -0.23100
C1340       C  0.11460495  0.05152978  0.84018847     0.19800
F1341       F  0.10534034  0.05747657  0.80896701    -0.13000
F1342       F  0.05793654  0.05812801  0.85537570    -0.15400
F1343       F  0.18936115  0.03187695  0.88841728    -0.15400
F1344       F  0.14256485  0.03239735  0.93561298    -0.13000
C1345       C  0.92103898  0.85638829  0.78527243     0.25000
C1346       C  0.91769916  0.88935001  0.78554741    -0.23100
C1347       C  0.88677904  0.90316179  0.79339602     0.19900
C1348       C  0.85901130  0.88411018  0.79940801     0.24900
C1349       C  0.86188404  0.85097705  0.79694681    -0.23100
C1350       C  0.89368362  0.83741150  0.79195074     0.19800
F1351       F  0.89791831  0.80565641  0.79162849    -0.13000
F1352       F  0.95042377  0.84251133  0.77639956    -0.15400
F1353       F  0.82889088  0.89817278  0.80495382    -0.15400
F1354       F  0.88297413  0.93493582  0.79299467    -0.13000
C1355       C  0.05357513  0.90335672  0.73029625     0.25000
C1356       C  0.03083990  0.89241849  0.75370240    -0.23100
C1357       C  0.03937469  0.86573275  0.77221626     0.19900
C1358       C  0.06967798  0.85013776  0.76706858     0.24900
C1359       C  0.09201524  0.86066267  0.74324972    -0.23100
C1360       C  0.08393086  0.88744489  0.72495033     0.19800
F1361       F  0.10584839  0.89879581  0.70283028    -0.13000
F1362       F  0.04651076  0.92966655  0.71288235    -0.15400
F1363       F  0.07706083  0.82423023  0.78509578    -0.15400
F1364       F  0.01793179  0.85370334  0.79436581    -0.13000
C1365       C  0.00889016  0.94015353  0.81934819     0.25000
C1366       C  0.98799501  0.91382047  0.81511611    -0.23100
C1367       C  0.97442640  0.89968720  0.84305134     0.19900
C1368       C  0.97825745  0.91372078  0.87378722     0.24900
C1369       C  0.99665551  0.94157943  0.87736042    -0.23100
C1370       C  0.01341825  0.95364001  0.85012164     0.19800
F1371       F  0.03304486  0.97952495  0.85302142    -0.13000
F1372       F  0.02297767  0.95442516  0.79335977    -0.15400
F1373       F  0.96193255  0.90128874  0.89953633    -0.15400
F1374       F  0.95689309  0.87263173  0.84080845    -0.13000
C1375       C  0.88160263  0.20734054  0.74790118     0.25000
C1376       C  0.88150368  0.23832261  0.75987691    -0.23100
C1377       C  0.90630857  0.24731183  0.78234211     0.19900
C1378       C  0.93155922  0.22611372  0.79172414     0.24900
C1379       C  0.93168696  0.19472630  0.78007738    -0.23100
C1380       C  0.90555543  0.18551381  0.75874606     0.19800
F1381       F  0.90158786  0.15490864  0.74998992    -0.13000
F1382       F  0.85626337  0.19724236  0.72832907    -0.15400
F1383       F  0.95487223  0.23621320  0.81338708    -0.15400
F1384       F  0.90495376  0.27620366  0.79663859    -0.13000
C1385       C  0.03949711  0.22862166  0.79960831     0.25000
C1386       C  0.04107290  0.19907792  0.78367348    -0.23100
C1387       C  0.06605248  0.19488804  0.75954075     0.19900
C1388       C  0.08587107  0.22007569  0.74948869     0.24900
C1389       C  0.08296228  0.24974439  0.76444105    -0.23100
C1390       C  0.05995424  0.25353789  0.78998400     0.19800
F1391       F  0.05749276  0.28150451  0.80600774    -0.13000
F1392       F  0.01879467  0.23352571  0.82519914    -0.15400
F1393       F  0.10953672  0.21477058  0.72644430    -0.15400
F1394       F  0.07270328  0.16621828  0.74632112    -0.13000
C1395       C  0.95344379  0.15490123  0.88980715     0.25000
C1396       C  0.98280274  0.14321218  0.90462080    -0.23100
C1397       C  0.01364035  0.14990352  0.89001527     0.19900
C1398       C  0.01516837  0.16506892  0.85977264     0.24900
C1399       C  0.98551751  0.17345528  0.84245138    -0.23100
C1400       C  0.95471028  0.17019356  0.85943371     0.19800
F1401       F  0.92534359  0.18031386  0.84625797    -0.13000
F1402       F  0.92318991  0.14976608  0.90373015    -0.15400
F1403       F  0.04596944  0.16956759  0.84686438    -0.15400
F1404       F  0.04255204  0.13954164  0.90400127    -0.13000
C1405       C  0.80012327  0.92871032  0.73976217     0.25000
C1406       C  0.77136892  0.92307294  0.75834935    -0.23100
C1407       C  0.76281458  0.94457638  0.78325596     0.19900
C1408       C  0.78215313  0.97147177  0.78905531     0.24900
C1409       C  0.81039554  0.97770352  0.76984530    -0.23100
C1410       C  0.81952207  0.95559125  0.74556112     0.19800
F1411       F  0.84760249  0.95983082  0.72761583    -0.13000
F1412       F  0.81048830  0.90732872  0.71717344    -0.15400
F1413       F  0.77242049  0.99191654  0.81273737    -0.15400
F1414       F  0.73549563  0.93947491  0.80204865    -0.13000
C1415       C  0.76994023  0.12347228  0.79805560     0.25000
C1416       C  0.79116073  0.14976537  0.79813986    -0.23100
C1417       C  0.82582453  0.14490974  0.80334171     0.19900
C1418       C  0.83934658  0.11422660  0.80300406     0.24900
C1419       C  0.81828577  0.08823122  0.79812917    -0.23100
C1420       C  0.78340583  0.09298739  0.79776813     0.19800
F1421       F  0.76253126  0.06821851  0.79322856    -0.13000
F1422       F  0.73614214  0.12731815  0.79639222    -0.15400
F1423       F  0.87308419  0.11000425  0.80504906    -0.15400
F1424       F  0.84685351  0.16975925  0.80607848    -0.13000
C1425       C  0.84754298  0.03151741  0.88616658     0.25000
C1426       C  0.88130247  0.02126801  0.88598621    -0.23100
C1427       C  0.89451835  0.00935539  0.85649657     0.19900
C1428       C  0.87564548  0.01003417  0.82771275     0.24900
C1429       C  0.84268638  0.02200907  0.82738360    -0.23100
C1430       C  0.82847150  0.03196046  0.85707365     0.19800
F1431       F  0.79663538  0.04344836  0.85757625    -0.13000
F1432       F  0.83369908  0.04305537  0.91392227    -0.15400
F1433       F  0.89070901  0.00148382  0.79942076    -0.15400
F1434       F  0.92643913  0.99801319  0.85509749    -0.13000
C1435       C  0.21554669  0.84600637  0.05467417     0.25000
C1436       C  0.21155083  0.87885754  0.05719400    -0.23100
C1437       C  0.20335332  0.89256373  0.08719536     0.19900
C1438       C  0.20072271  0.87363851  0.11480421     0.24900
C1439       C  0.20730946  0.84096918  0.11269568    -0.23100
C1440       C  0.21340880  0.82721617  0.08216759     0.19800
F1441       F  0.21826423  0.79565825  0.07905764    -0.13000
F1442       F  0.22388250  0.83233977  0.02583065    -0.15400
F1443       F  0.19381281  0.88752703  0.14385469    -0.15400
F1444       F  0.19944561  0.92424546  0.08999976    -0.13000
C1445       C  0.25858348  0.88053342  0.92312215     0.25000
C1446       C  0.23359825  0.87525282  0.94662052    -0.23100
C1447       C  0.21018047  0.85107370  0.94088907     0.19900
C1448       C  0.21158177  0.83299501  0.91244734     0.24900
C1449       C  0.23683946  0.83804878  0.88942796    -0.23100
C1450       C  0.26005412  0.86219155  0.89480044     0.19800
F1451       F  0.28297703  0.86927554  0.87169931    -0.13000
F1452       F  0.28139677  0.90379009  0.92714613    -0.15400
F1453       F  0.18819077  0.81036788  0.90744783    -0.15400
F1454       F  0.18656253  0.84383765  0.96319628    -0.13000
C1455       C  0.13856223  0.94547623  0.97020193     0.25000
C1456       C  0.11105757  0.93435479  0.98799614    -0.23100
C1457       C  0.11472410  0.90576765  0.00484371     0.19900
C1458       C  0.14623986  0.89069178  0.00683666     0.24900
C1459       C  0.17451714  0.90373542  0.99162557    -0.23100
C1460       C  0.16981145  0.93037794  0.97189613     0.19800
F1461       F  0.19607667  0.94321577  0.95598650    -0.13000
F1462       F  0.13542871  0.97173298  0.95180333    -0.15400
F1463       F  0.14919083  0.86368301  0.02408812    -0.15400
F1464       F  0.08839837  0.89339746  0.02095436    -0.13000
C1465       C  0.72194190  0.18291301  0.08883018     0.25000
C1466       C  0.74444281  0.18944165  0.06331662    -0.23100
C1467       C  0.76312131  0.21743340  0.06532697     0.19900
C1468       C  0.75790419  0.23893979  0.09114376     0.24900
C1469       C  0.73339629  0.23327609  0.11509597    -0.23100
C1470       C  0.71571405  0.20490698  0.11359748     0.19800
F1471       F  0.69358673  0.19756373  0.13732461    -0.13000
F1472       F  0.70585072  0.15489751  0.08998748    -0.15400
F1473       F  0.77648139  0.26557501  0.09248824    -0.15400
F1474       F  0.78584774  0.22443037  0.04205386    -0.13000
C1475       C  0.73506177  0.16742132  0.92043569     0.25000
C1476       C  0.74914721  0.18092308  0.94885382    -0.23100
C1477       C  0.75618055  0.21338169  0.94869976     0.19900
C1478       C  0.74899528  0.23172837  0.92113878     0.24900
C1479       C  0.73291864  0.21856841  0.89370095    -0.23100
C1480       C  0.72652465  0.18610158  0.89346361     0.19800
F1481       F  0.71266523  0.17230708  0.86676139    -0.13000
F1482       F  0.72810303  0.13617540  0.91945444    -0.15400
F1483       F  0.75734922  0.26265292  0.92140004    -0.15400
F1484       F  0.76808766  0.22789047  0.97584764    -0.13000
C1485       C  0.82715172  0.16653991  0.99537773     0.25000
C1486       C  0.79856940  0.15539383  0.01179007    -0.23100
C1487       C  0.80225809  0.12720044  0.02975071     0.19900
C1488       C  0.83290734  0.11058043  0.03063265     0.24900
C1489       C  0.86115466  0.12127749  0.01355996    -0.23100
C1490       C  0.85812268  0.14996935  0.99664872     0.19800
F1491       F  0.88466311  0.16114023  0.97983842    -0.13000
F1492       F  0.82501523  0.19306406  0.97732581    -0.15400
F1493       F  0.83478126  0.08346725  0.04797003    -0.15400
F1494       F  0.77557399  0.11454271  0.04514832    -0.13000
C1495       C  0.77193406  0.83142105  0.09784216     0.25000
C1496       C  0.78993330  0.83431879  0.12734379    -0.23100
C1497       C  0.82476723  0.84022188  0.12598576     0.19900
C1498       C  0.84168402  0.83825820  0.09622813     0.24900
C1499       C  0.82406414  0.83038913  0.06783732    -0.23100
C1500       C  0.78894472  0.82930557  0.06841275     0.19800
F1501       F  0.77142560  0.82235764  0.04087556    -0.13000
F1502       F  0.73813461  0.82772908  0.09751599    -0.15400
F1503       F  0.87554645  0.84118312  0.09553430    -0.15400
F1504       F  0.84307518  0.84464997  0.15356582    -0.13000
C1505       C  0.77702979  0.81136160  0.92278307     0.25000
C1506       C  0.78636212  0.78742936  0.90073599    -0.23100
C1507       C  0.81535032  0.76943193  0.90683689     0.19900
C1508       C  0.83399966  0.77445610  0.93528488     0.24900
C1509       C  0.82397330  0.79766978  0.95785927    -0.23100
C1510       C  0.79540988  0.81618898  0.95126538     0.19800
F1511       F  0.78388650  0.83756721  0.97330109    -0.13000
F1512       F  0.74956494  0.82969010  0.91705811    -0.15400
F1513       F  0.86157152  0.75633513  0.94110223    -0.15400
F1514       F  0.82619508  0.74778490  0.88476309    -0.13000
C1515       C  0.83920558  0.88337577  0.01103904     0.25000
C1516       C  0.85312407  0.85475436  0.99976256    -0.33100
C1517       C  0.88270236  0.85571061  0.98135346     0.19900
C1518       C  0.89944079  0.88401827  0.97658062     0.24900
C1519       C  0.88718358  0.91243362  0.99011120    -0.23100
C1520       C  0.85604209  0.91196651  0.00625621     0.19800
F1521       F  0.84281191  0.93874838  0.01917213    -0.13000
F1522       F  0.80962871  0.88370308  0.02714581    -0.15400
F1523       F  0.92873369  0.88318320  0.95989344    -0.15400
F1524       F  0.89692616  0.82874909  0.96986309    -0.13000
loop_ 
_geom_bond_atom_site_label_1 
_geom_bond_atom_site_label_2 
_geom_bond_distance 
_geom_bond_site_symmetry_2 
_ccdc_geom_bond_type 
N1            C5   1.358   1_554  A
N1            C2   1.354       .  A
N1         C1516   1.449   1_554  S
C2            C3   1.385       .  A
C2         C1499   1.468       .  S
C3            C4   1.365       .  A
C3            H6   1.081       .  S
C4            C5   1.378   1_554  A
C4            H7   1.082       .  S
C5         C1509   1.472       .  S
N8           C12   1.373   1_554  A
N8            C9   1.372       .  A
N8         C1486   1.467       .  S
C9           C10   1.383       .  A
C9         C1466   1.501       .  S
C10          C11   1.356   1_554  A
C10          H13   1.081       .  S
C11          C12   1.382       .  A
C11          H14   1.083       .  S
C12        C1476   1.496       .  S
N15          C19   1.359       .  A
N15          C16   1.354   1_556  A
N15        C1459   1.450       .  S
C16          C17   1.382       .  A
C16        C1436   1.467       .  S
C17          C18   1.370   1_554  A
C17          H20   1.083       .  S
C18          C19   1.384       .  A
C18          H21   1.081       .  S
C19        C1446   1.489       .  S
N22          C26   1.368       .  A
N22          C23   1.360       .  A
N22        C1429   1.449       .  S
C23          C24   1.380       .  A
C23        C1419   1.478       .  S
C24          C25   1.367       .  A
C24          H27   1.083       .  S
C25          C26   1.383       .  A
C25          H28   1.082       .  S
C26        C1409   1.493   1_545  S
N29          C33   1.369   1_655  A
N29          C30   1.366       .  A
N29        C1399   1.476       .  S
C30          C31   1.384       .  A
C30        C1379   1.502       .  S
C31          C32   1.359   1_655  A
C31          H34   1.080       .  S
C32          C33   1.387       .  A
C32          H35   1.077       .  S
C33        C1386   1.512       .  S
N36          C40   1.356       .  A
N36          C37   1.356       .  A
N36        C1366   1.450       .  S
C37          C38   1.383       .  A
C37        C1346   1.469       .  S
C38          C39   1.371       .  A
C38          H41   1.083       .  S
C39          C40   1.381       .  A
C39          H42   1.082       .  S
C40        C1356   1.478   1_655  S
N43          C47   1.360       .  A
N43          C44   1.353       .  A
N43        C1339   1.439       .  S
C44          C45   1.380       .  A
C44        C1326   1.471       .  S
C45          C46   1.366       .  A
C45          H48   1.082       .  S
C46          C47   1.384       .  A
C46          H49   1.082       .  S
C47        C1316   1.478   1_545  S
N50          C54   1.369       .  A
N50          C51   1.369       .  A
N50        C1306   1.473       .  S
C51          C52   1.389       .  A
C51        C1296   1.500       .  S
C52          C53   1.358       .  A
C52          H55   1.081       .  S
C53          C54   1.378       .  A
C53          H56   1.081       .  S
C54        C1286   1.497   1_655  S
N57          C61   1.374       .  A
N57          C58   1.368       .  A
N57        C1279   1.461       .  S
C58          C59   1.379       .  A
C58        C1266   1.487       .  S
C59          C60   1.362       .  A
C59          H62   1.083       .  S
C60          C61   1.385       .  A
C60          H63   1.081       .  S
C61        C1259   1.505   1_545  S
N64          C68   1.365   1_655  A
N64          C65   1.367       .  A
N64        C1226   1.463       .  S
C65          C66   1.384       .  A
C65        C1236   1.490       .  S
C66          C67   1.362       .  A
C66          H69   1.083       .  S
C67          C68   1.382   1_655  A
C67          H70   1.081   1_655  S
C68        C1249   1.495       .  S
Zr71         O72   2.438       .  S
Zr71         O73   2.419       .  S
Zr71         O74   2.393       .  S
Zr71         O77   2.403       .  S
Zr71         O79   2.381       .  S
Zr71         O80   2.382       .  S
Zr71         O81   2.396       .  S
Zr71         O82   2.389       .  S
O72         H128   0.990       .  S
O72         H136   0.990       .  S
O73          C93   1.282       .  A
O74          C95   1.275       .  A
O75         Zr85   2.488       .  S
O75          C94   1.297       .  A
O76         Zr84   2.482       .  S
O76          C95   1.294       .  A
O77          C94   1.279       .  A
O78         Zr86   2.437       .  S
O78          C93   1.287       .  A
O79         Zr84   2.383       .  S
O79         Zr86   2.359       .  S
O80         Zr85   2.387       .  S
O80         Zr86   2.359       .  S
O80         H115   0.944       .  S
O81         Zr84   2.403       .  S
O81        Zr101   2.391       .  S
O81         H118   0.968       .  S
O82         Zr85   2.402       .  S
O82        Zr101   2.399       .  S
Zr83        O108   2.438       .  S
Zr83        O102   2.434       .  S
Zr83        O110   2.394       .  S
Zr83         O98   2.388       .  S
Zr83         O89   2.397       .  S
Zr83         O90   2.398       .  S
Zr83         O91   2.374       .  S
Zr83         O92   2.380       .  S
Zr84        O103   2.435       .  S
Zr84         O96   2.437       .  S
Zr84         O97   2.479       .  S
Zr84         O90   2.400       .  S
Zr84         O91   2.384       .  S
Zr85         O87   2.432       .  S
Zr85        O109   2.436       .  S
Zr85        O111   2.481       .  S
Zr85         O89   2.401       .  S
Zr85         O92   2.395       .  S
Zr86        O112   2.436       .  S
Zr86        O113   2.436       .  S
Zr86         O88   2.435       .  S
Zr86         O89   2.404       .  S
Zr86         O90   2.396       .  S
O87         H124   0.990       .  S
O88         H119   0.990       .  S
O88         H133   0.990       .  S
O90         H116   0.971       .  S
O91        Zr101   2.366       .  S
O92        Zr101   2.360       .  S
O92         H117   0.964       .  S
C93        C1199   1.476       .  S
C94        C1176   1.481       .  S
C95        C1189   1.472       .  S
O96         H132   0.990       .  S
O97          C99   1.295       .  A
O98          C99   1.277       .  A
C99        C1206   1.478       .  S
O100       Zr101   2.434       .  S
O100        H129   0.990       .  S
Zr101       O104   2.435       .  S
Zr101       O105   2.437       .  S
Zr101       O106   2.430       .  S
O102        C107   1.284       .  A
O103        H120   0.990       .  S
O103        H135   0.990       .  S
O104        H121   0.990       .  S
O105        H125   0.990       .  S
O105        H134   0.990       .  S
O106        C107   1.284       .  A
C107       C1219   1.478       .  S
O108        H127   0.990       .  S
O108        H131   0.990       .  S
O109        H123   0.990       .  S
O109        H130   0.990       .  S
O110        C114   1.278       .  A
O111        C114   1.296       .  A
O112        H122   0.990       .  S
O113        H126   0.990       .  S
C114       C1246   1.475       .  S
N137        C141   1.365       .  A
N137        C138   1.358       .  A
N137       C1156   1.451       .  S
C138        C139   1.380       .  A
C138       C1216   1.473       .  S
C139        C140   1.365       .  A
C139        H142   1.083       .  S
C140        C141   1.382       .  A
C140        H143   1.082       .  S
C141       C1169   1.482   1_545  S
Zr144       O145   2.438       .  S
Zr144       O146   2.411       .  S
Zr144       O147   2.401       .  S
Zr144       O150   2.394       .  S
Zr144       O152   2.377       .  S
Zr144       O153   2.385       .  S
Zr144       O154   2.398       .  S
Zr144       O155   2.395       .  S
O145        H201   0.990       .  S
O145        H209   0.990       .  S
O146        C166   1.279       .  A
O147        C168   1.278       .  A
O148       Zr158   2.486       .  S
O148        C167   1.295       .  A
O149       Zr157   2.467       .  S
O149        C168   1.291       .  A
O150        C167   1.278       .  A
O151       Zr159   2.419       .  S
O151        C166   1.283       .  A
O152       Zr157   2.385       .  S
O152       Zr159   2.365       .  S
O153       Zr158   2.385       .  S
O153       Zr159   2.370       .  S
O153        H188   0.965       .  S
O154       Zr157   2.402       .  S
O154       Zr174   2.397       .  S
O154        H191   0.968       .  S
O155       Zr158   2.399       .  S
O155       Zr174   2.402       .  S
Zr156       O181   2.440       .  S
Zr156       O175   2.400       .  S
Zr156       O183   2.390       .  S
Zr156       O171   2.397       .  S
Zr156       O162   2.391       .  S
Zr156       O163   2.392       .  S
Zr156       O164   2.376       .  S
Zr156       O165   2.384       .  S
Zr157       O176   2.440       .  S
Zr157       O169   2.436       .  S
Zr157       O170   2.468       .  S
Zr157       O163   2.402       .  S
Zr157       O164   2.381       .  S
Zr158       O160   2.434       .  S
Zr158       O182   2.437       .  S
Zr158       O184   2.471       .  S
Zr158       O162   2.408       .  S
Zr158       O165   2.394       .  S
Zr159       O185   2.434       .  S
Zr159       O186   2.436       .  S
Zr159       O161   2.438       .  S
Zr159       O162   2.400       .  S
Zr159       O163   2.387       .  S
O160        H197   0.990       .  S
O161        H192   0.990       .  S
O161        H206   0.990       .  S
O163        H189   0.967       .  S
O164       Zr174   2.367       .  S
O165       Zr174   2.369       .  S
O165        H190   0.966       .  S
C166       C1126   1.464       .  S
C167       C1136   1.481       .  S
C168       C1146   1.470       .  S
O169        H205   0.990       .  S
O170        C172   1.291       .  A
O171        C172   1.277       .  A
C172       C1166   1.472       .  S
O173       Zr174   2.437       .  S
O173        H202   0.990       .  S
Zr174       O177   2.435       .  S
Zr174       O178   2.438       .  S
Zr174       O179   2.435       .  S
O175        C180   1.277       .  A
O176        H193   0.990       .  S
O176        H208   0.990       .  S
O177        H194   0.990       .  S
O178        H198   0.990       .  S
O178        H207   0.990       .  S
O179        C180   1.286       .  A
C180       C1439   1.472       .  S
O181        H200   0.990       .  S
O181        H204   0.990       .  S
O182        H196   0.990       .  S
O182        H203   0.990       .  S
O183        C187   1.277       .  A
O184        C187   1.292       .  A
O185        H195   0.990       .  S
O186        H199   0.989       .  S
C187       C1289   1.470       .  S
Zr210       O211   2.439       .  S
Zr210       O212   2.448       .  S
Zr210       O213   2.386       .  S
Zr210       O216   2.397       .  S
Zr210       O218   2.379       .  S
Zr210       O219   2.378       .  S
Zr210       O220   2.405       .  S
Zr210       O221   2.395       .  S
O211        H267   0.990       .  S
O211        H275   0.990       .  S
O212        C232   1.287       .  A
O213        C234   1.274       .  A
O214       Zr224   2.502       .  S
O214        C233   1.299       .  A
O215       Zr223   2.480       .  S
O215        C234   1.294       .  A
O216        C233   1.277       .  A
O217       Zr225   2.446       .  S
O217        C232   1.287       .  A
O218       Zr223   2.390       .  S
O218       Zr225   2.359       .  S
O219       Zr224   2.388       .  S
O219       Zr225   2.366       .  S
O219        H254   0.964       .  S
O220       Zr223   2.405       .  S
O220       Zr240   2.397       .  S
O220        H257   0.964       .  S
O221       Zr224   2.400       .  S
O221       Zr240   2.406       .  S
Zr222       O247   2.439       .  S
Zr222       O241   2.429       .  S
Zr222       O249   2.391       .  S
Zr222       O237   2.394       .  S
Zr222       O228   2.398       .  S
Zr222       O229   2.398       .  S
Zr222       O230   2.376       .  S
Zr222       O231   2.386       .  S
Zr223       O242   2.436       .  S
Zr223       O235   2.434       .  S
Zr223       O236   2.494       .  S
Zr223       O229   2.398       .  S
Zr223       O230   2.383       .  S
Zr224       O226   2.433       .  S
Zr224       O248   2.435       .  S
Zr224       O250   2.487       .  S
Zr224       O228   2.405       .  S
Zr224       O231   2.395       .  S
Zr225       O251   2.433       .  S
Zr225       O252   2.436       .  S
Zr225       O227   2.437       .  S
Zr225       O228   2.406       .  S
Zr225       O229   2.400       .  S
O226        H263   0.990       .  S
O227        H258   0.990       .  S
O227        H272   0.990       .  S
O229        H255   0.966       .  S
O230       Zr240   2.367       .  S
O231       Zr240   2.364       .  S
O231        H256   0.965       .  S
C232       C1269   1.495       .  S
C233       C1469   1.488       .  S
C234       C1239   1.468       .  S
O235        H271   0.990       .  S
O236        C238   1.297       .  A
O237        C238   1.276       .  A
C238       C1096   1.485       .  S
O239       Zr240   2.435       .  S
O239        H268   0.990       .  S
Zr240       O243   2.434       .  S
Zr240       O244   2.438       .  S
Zr240       O245   2.449       .  S
O241        C246   1.283       .  A
O242        H259   0.989       .  S
O242        H274   0.990       .  S
O243        H260   0.990       .  S
O244        H264   0.990       .  S
O244        H273   0.990       .  S
O245        C246   1.288       .  A
C246       C1106   1.487       .  S
O247        H266   0.990       .  S
O247        H270   0.990       .  S
O248        H262   0.990       .  S
O248        H269   0.990       .  S
O249        C253   1.277       .  A
O250        C253   1.296       .  A
O251        H261   0.989       .  S
O252        H265   0.990       .  S
C253       C1116   1.480       .  S
Zr276       O277   2.437       .  S
Zr276       O278   2.405       .  S
Zr276       O279   2.399       .  S
Zr276       O282   2.382       .  S
Zr276       O284   2.375       .  S
Zr276       O285   2.384       .  S
Zr276       O286   2.387       .  S
Zr276       O287   2.393       .  S
O277        H333   0.990       .  S
O277        H341   0.990       .  S
O278        C298   1.279       .  A
O279        C300   1.277       .  A
O280       Zr290   2.494       .  S
O280        C299   1.297       .  A
O281       Zr289   2.493       .  S
O281        C300   1.297       .  A
O282        C299   1.277       .  A
O283       Zr291   2.449       .  S
O283        C298   1.289       .  A
O284       Zr289   2.378       .  S
O284       Zr291   2.360       .  S
O285       Zr290   2.389       .  S
O285       Zr291   2.360       .  S
O285        H320   0.965       .  S
O286       Zr289   2.399       .  S
O286       Zr306   2.390       .  S
O286        H323   0.966       .  S
O287       Zr290   2.407       .  S
O287       Zr306   2.399       .  S
Zr288       O313   2.441       .  S
Zr288       O307   2.425       .  S
Zr288       O315   2.410       .  S
Zr288       O303   2.398       .  S
Zr288       O294   2.394       .  S
Zr288       O295   2.408       .  S
Zr288       O296   2.376       .  S
Zr288       O297   2.383       .  S
Zr289       O308   2.434       .  S
Zr289       O301   2.435       .  S
Zr289       O302   2.477       .  S
Zr289       O295   2.408       .  S
Zr289       O296   2.386       .  S
Zr290       O292   2.433       .  S
Zr290       O314   2.435       .  S
Zr290       O316   2.489       .  S
Zr290       O294   2.409       .  S
Zr290       O297   2.395       .  S
Zr291       O317   2.435       .  S
Zr291       O318   2.435       .  S
Zr291       O293   2.438       .  S
Zr291       O294   2.410       .  S
Zr291       O295   2.397       .  S
O292        H329   0.990       .  S
O293        H324   0.990       .  S
O293        H338   0.990       .  S
O295        H321   0.967       .  S
O296       Zr306   2.361       .  S
O297       Zr306   2.361       .  S
O297        H322   0.964       .  S
C298       C1066   1.478       .  S
C299       C1079   1.481       .  S
C300       C1086   1.488       .  S
O301        H337   0.990       .  S
O302        C304   1.292       .  A
O303        C304   1.275       .  A
C304       C1299   1.477       .  S
O305       Zr306   2.433       .  S
O305        H334   0.990       .  S
Zr306       O309   2.432       .  S
Zr306       O310   2.440       .  S
Zr306       O311   2.426       .  S
O307        C312   1.282       .  A
O308        H325   0.990       .  S
O308        H340   0.990       .  S
O309        H326   0.990       .  S
O310        H330   0.990       .  S
O310        H339   0.990       .  S
O311        C312   1.284       .  A
C312       C1496   1.487       .  S
O313        H332   0.990       .  S
O313        H336   0.990       .  S
O314        H328   0.990       .  S
O314        H335   0.990       .  S
O315        C319   1.280       .  A
O316        C319   1.297       .  A
O317        H327   0.990       .  S
O318        H331   0.990       .  S
C319       C1256   1.488       .  S
N342        C346   1.375   1_554  A
N342        C343   1.374       .  A
N342       C1046   1.481       .  S
C343        C344   1.382       .  A
C343       C1209   1.501       .  S
C344        C345   1.359   1_554  A
C344        H347   1.081       .  S
C345        C346   1.383       .  A
C345        H348   1.083       .  S
C346       C1056   1.499       .  S
Zr349       O350   2.439       .  S
Zr349       O351   2.419       .  S
Zr349       O352   2.406       .  S
Zr349       O355   2.402       .  S
Zr349       O357   2.383       .  S
Zr349       O358   2.391       .  S
Zr349       O359   2.409       .  S
Zr349       O360   2.391       .  S
O350        H406   0.991       .  S
O350        H414   0.990       .  S
O351        C371   1.280       .  A
O352        C373   1.270       .  A
O353       Zr363   2.480       .  S
O353        C372   1.292       .  A
O354       Zr362   2.479       .  S
O354        C373   1.290       .  A
O355        C372   1.276       .  A
O356       Zr364   2.416       .  S
O356        C371   1.283       .  A
O357       Zr362   2.401       .  S
O357       Zr364   2.354       .  S
O358       Zr363   2.400       .  S
O358       Zr364   2.371       .  S
O358        H393   0.965       .  S
O359       Zr362   2.422       .  S
O359       Zr379   2.394       .  S
O359        H396   0.966       .  S
O360       Zr363   2.406       .  S
O360       Zr379   2.389       .  S
Zr361       O386   2.441       .  S
Zr361       O380   2.408       .  S
Zr361       O388   2.347       .  S
Zr361       O376   2.366       .  S
Zr361       O367   2.389       .  S
Zr361       O368   2.381       .  S
Zr361       O369   2.369       .  S
Zr361       O370   2.376       .  S
Zr362       O381   2.435       .  S
Zr362       O374   2.433       .  S
Zr362       O375   2.507       .  S
Zr362       O368   2.396       .  S
Zr362       O369   2.383       .  S
Zr363       O365   2.435       .  S
Zr363       O387   2.435       .  S
Zr363       O389   2.498       .  S
Zr363       O367   2.404       .  S
Zr363       O370   2.387       .  S
Zr364       O390   2.435       .  S
Zr364       O391   2.435       .  S
Zr364       O366   2.436       .  S
Zr364       O367   2.395       .  S
Zr364       O368   2.395       .  S
O365        H402   0.990       .  S
O366        H397   0.990       .  S
O366        H411   0.990       .  S
O368        H394   0.968       .  S
O369       Zr379   2.379       .  S
O370       Zr379   2.371       .  S
O370        H395   0.965       .  S
C371       C1329   1.472       .  S
C372       C1059   1.480       .  S
C373       C1389   1.483       .  S
O374        H410   0.990       .  S
O375        C377   1.298       .  A
O376        C377   1.271       .  A
C377       C1016   1.476       .  S
O378       Zr379   2.436       .  S
O378        H407   0.990       .  S
Zr379       O382   2.436       .  S
Zr379       O383   2.437       .  S
Zr379       O384   2.418       .  S
O380        C385   1.279       .  A
O381        H398   0.990       .  S
O381        H413   0.990       .  S
O382        H399   0.990       .  S
O383        H403   0.990       .  S
O383        H412   0.990       .  S
O384        C385   1.283       .  A
C385       C1029   1.463       .  S
O386        H405   0.990       .  S
O386        H409   0.990       .  S
O387        H401   0.990       .  S
O387        H408   0.990       .  S
O388        C392   1.270       .  A
O389        C392   1.296       .  A
O390        H400   0.990       .  S
O391        H404   0.990       .  S
C392       C1036   1.474       .  S
Zr415       O416   2.438       .  S
Zr415       O417   2.409       .  S
Zr415       O418   2.403       .  S
Zr415       O421   2.380       .  S
Zr415       O423   2.369       .  S
Zr415       O424   2.381       .  S
Zr415       O425   2.388       .  S
Zr415       O426   2.388       .  S
O416        H472   0.991       .  S
O416        H480   0.990       .  S
O417        C437   1.279       .  A
O418        C439   1.277       .  A
O419       Zr429   2.452       .  S
O419        C438   1.289       .  A
O420       Zr428   2.451       .  S
O420        C439   1.288       .  A
O421        C438   1.277       .  A
O422       Zr430   2.437       .  S
O422        C437   1.286       .  A
O423       Zr428   2.380       .  S
O423       Zr430   2.363       .  S
O424       Zr429   2.391       .  S
O424       Zr430   2.366       .  S
O424        H459   0.965       .  S
O425       Zr428   2.396       .  S
O425       Zr445   2.394       .  S
O425        H462   0.966       .  S
O426       Zr429   2.405       .  S
O426       Zr445   2.386       .  S
Zr427       O452   2.439       .  S
Zr427       O446   2.426       .  S
Zr427       O454   2.404       .  S
Zr427       O442   2.392       .  S
Zr427       O433   2.394       .  S
Zr427       O434   2.394       .  S
Zr427       O435   2.378       .  S
Zr427       O436   2.375       .  S
Zr428       O447   2.438       .  S
Zr428       O440   2.436       .  S
Zr428       O441   2.435       .  S
Zr428       O434   2.401       .  S
Zr428       O435   2.383       .  S
Zr429       O431   2.436       .  S
Zr429       O453   2.436       .  S
Zr429       O455   2.462       .  S
Zr429       O433   2.396       .  S
Zr429       O436   2.384       .  S
Zr430       O456   2.437       .  S
Zr430       O457   2.435       .  S
Zr430       O432   2.434       .  S
Zr430       O433   2.404       .  S
Zr430       O434   2.399       .  S
O431        H468   0.990       .  S
O432        H463   0.990       .  S
O432        H477   0.990       .  S
O434        H460   0.968       .  S
O435       Zr445   2.373       .  S
O436       Zr445   2.351       .  S
O436        H461   0.963       .  S
C437       C1319   1.474       .  S
C438       C1359   1.463       .  S
C439       C1449   1.471       .  S
O440        H476   0.990       .  S
O441        C443   1.286       .  A
O442        C443   1.278       .  A
C443        C999   1.463       .  S
O444       Zr445   2.434       .  S
O444        H473   0.990       .  S
Zr445       O448   2.433       .  S
Zr445       O449   2.441       .  S
Zr445       O450   2.421       .  S
O446        C451   1.283       .  A
O447        H464   0.990       .  S
O447        H479   0.990       .  S
O448        H465   0.990       .  S
O449        H469   0.990       .  S
O449        H478   0.990       .  S
O450        C451   1.284       .  A
C451       C1006   1.468       .  S
O452        H471   0.990       .  S
O452        H475   0.990       .  S
O453        H467   0.990       .  S
O453        H474   0.990       .  S
O454        C458   1.279       .  A
O455        C458   1.291       .  A
O456        H466   0.990       .  S
O457        H470   0.990       .  S
C458        C986   1.468       .  S
Zr481       O482   2.439       .  S
Zr481       O483   2.431       .  S
Zr481       O484   2.387       .  S
Zr481       O487   2.387       .  S
Zr481       O489   2.379       .  S
Zr481       O490   2.382       .  S
Zr481       O491   2.398       .  S
Zr481       O492   2.397       .  S
O482        H538   0.990       .  S
O482        H546   0.990       .  S
O483        C503   1.283       .  A
O484        C505   1.275       .  A
O485       Zr495   2.480       .  S
O485        C504   1.294       .  A
O486       Zr494   2.507       .  S
O486        C505   1.299       .  A
O487        C504   1.276       .  A
O488       Zr496   2.448       .  S
O488        C503   1.288       .  A
O489       Zr494   2.386       .  S
O489       Zr496   2.366       .  S
O490       Zr495   2.401       .  S
O490       Zr496   2.359       .  S
O490        H525   0.964       .  S
O491       Zr494   2.417       .  S
O491       Zr511   2.413       .  S
O491        H528   0.965       .  S
O492       Zr495   2.407       .  S
O492       Zr511   2.402       .  S
Zr493       O518   2.443       .  S
Zr493       O512   2.434       .  S
Zr493       O520   2.375       .  S
Zr493       O508   2.382       .  S
Zr493       O499   2.399       .  S
Zr493       O500   2.410       .  S
Zr493       O501   2.374       .  S
Zr493       O502   2.369       .  S
Zr494       O513   2.434       .  S
Zr494       O506   2.434       .  S
Zr494       O507   2.507       .  S
Zr494       O500   2.411       .  S
Zr494       O501   2.399       .  S
Zr495       O497   2.435       .  S
Zr495       O519   2.438       .  S
Zr495       O521   2.505       .  S
Zr495       O499   2.388       .  S
Zr495       O502   2.385       .  S
Zr496       O522   2.439       .  S
Zr496       O523   2.437       .  S
Zr496       O498   2.436       .  S
Zr496       O499   2.410       .  S
Zr496       O500   2.393       .  S
O497        H534   0.990       .  S
O498        H529   0.990       .  S
O498        H543   0.990       .  S
O500        H526   0.966       .  S
O501       Zr511   2.367       .  S
O502       Zr511   2.372       .  S
O502        H527   0.965       .  S
C503       C1416   1.488       .  S
C504       C1376   1.468       .  S
C505       C1479   1.484       .  S
O506        H542   0.990       .  S
O507        C509   1.289       .  A
O508        C509   1.261       .  A
C509        C966   1.499       .  S
O510       Zr511   2.436       .  S
O510        H539   0.990       .  S
Zr511       O514   2.435       .  S
Zr511       O515   2.438       .  S
Zr511       O516   2.451       .  S
O512        C517   1.285       .  A
O513        H530   0.990       .  S
O513        H545   0.990       .  S
O514        H531   0.990       .  S
O515        H535   0.990       .  S
O515        H544   0.990       .  S
O516        C517   1.287       .  A
C517        C976   1.485       .  S
O518        H537   0.990       .  S
O518        H541   0.989       .  S
O519        H533   0.990       .  S
O519        H540   0.990       .  S
O520        C524   1.274       .  A
O521        C524   1.299       .  A
O522        H532   0.990       .  S
O523        H536   0.990       .  S
C524        C956   1.475       .  S
Zr547       O548   2.437       .  S
Zr547       O549   2.415       .  S
Zr547       O550   2.379       .  S
Zr547       O553   2.391       .  S
Zr547       O555   2.377       .  S
Zr547       O556   2.377       .  S
Zr547       O557   2.395       .  S
Zr547       O558   2.385       .  S
O548        H604   0.990       .  S
O548        H612   0.990       .  S
O549        C569   1.281       .  A
O550        C571   1.275       .  A
O551       Zr561   2.483       .  S
O551        C570   1.294       .  A
O552       Zr560   2.468       .  S
O552        C571   1.292       .  A
O553        C570   1.278       .  A
O554       Zr562   2.438       .  S
O554        C569   1.287       .  A
O555       Zr560   2.393       .  S
O555       Zr562   2.363       .  S
O556       Zr561   2.381       .  S
O556       Zr562   2.363       .  S
O556        H591   0.964       .  S
O557       Zr560   2.408       .  S
O557       Zr577   2.394       .  S
O557        H594   0.967       .  S
O558       Zr561   2.395       .  S
O558       Zr577   2.395       .  S
Zr559       O584   2.439       .  S
Zr559       O578   2.410       .  S
Zr559       O586   2.387       .  S
Zr559       O574   2.394       .  S
Zr559       O565   2.392       .  S
Zr559       O566   2.392       .  S
Zr559       O567   2.379       .  S
Zr559       O568   2.379       .  S
Zr560       O579   2.438       .  S
Zr560       O572   2.435       .  S
Zr560       O573   2.495       .  S
Zr560       O566   2.396       .  S
Zr560       O567   2.382       .  S
Zr561       O563   2.433       .  S
Zr561       O585   2.437       .  S
Zr561       O587   2.469       .  S
Zr561       O565   2.408       .  S
Zr561       O568   2.389       .  S
Zr562       O588   2.433       .  S
Zr562       O589   2.437       .  S
Zr562       O564   2.437       .  S
Zr562       O565   2.404       .  S
Zr562       O566   2.393       .  S
O563        H600   0.990       .  S
O564        H595   0.990       .  S
O564        H609   0.990       .  S
O566        H592   0.967       .  S
O567       Zr577   2.372       .  S
O568       Zr577   2.366       .  S
O568        H593   0.966       .  S
C569       C1349   1.479       .  S
C570       C1406   1.480       .  S
C571       C1506   1.467       .  S
O572        H608   0.990       .  S
O573        C575   1.297       .  A
O574        C575   1.275       .  A
C575        C936   1.492       .  S
O576       Zr577   2.436       .  S
O576        H605   0.989       .  S
Zr577       O580   2.434       .  S
Zr577       O581   2.440       .  S
Zr577       O582   2.425       .  S
O578        C583   1.279       .  A
O579        H596   0.990       .  S
O579        H611   0.990       .  S
O580        H597   0.990       .  S
O581        H601   0.990       .  S
O581        H610   0.990       .  S
O582        C583   1.285       .  A
C583        C946   1.477       .  S
O584        H603   0.990       .  S
O584        H607   0.990       .  S
O585        H599   0.990       .  S
O585        H606   0.990       .  S
O586        C590   1.277       .  A
O587        C590   1.292       .  A
O588        H598   0.990       .  S
O589        H602   0.989       .  S
C590        C929   1.474       .  S
N613        C617   1.352       .  A
N613        C614   1.353       .  A
N613        C916   1.444       .  S
C614        C615   1.386       .  A
C614        C949   1.466       .  S
C615        C616   1.372       .  A
C615        H618   1.083       .  S
C616        C617   1.380       .  A
C616        H619   1.082       .  S
C617        C996   1.478       .  S
N620        C624   1.354       .  A
N620        C621   1.352       .  A
N620        C906   1.442       .  S
C621        C622   1.380       .  A
C621       C1026   1.463       .  S
C622        C623   1.368       .  A
C622        H625   1.082       .  S
C623        C624   1.384       .  A
C623        H626   1.083       .  S
C624       C1009   1.467       .  S
N627        C631   1.364       .  A
N627        C628   1.356       .  A
N627        C899   1.467       .  S
C628        C629   1.381       .  A
C628        C969   1.478       .  S
C629        C630   1.364       .  A
C629        H632   1.083       .  S
C630        C631   1.385       .  A
C630        H633   1.082       .  S
C631       C1039   1.498       .  S
N634        C638   1.373       .  A
N634        C635   1.361       .  A
N634        C886   1.456       .  S
C635        C636   1.378       .  A
C635        C979   1.480       .  S
C636        C637   1.364       .  A
C636        H639   1.083       .  S
C637        C638   1.385       .  A
C637        H640   1.082       .  S
C638        C939   1.500       .  S
N641        C645   1.368       .  A
N641        C642   1.372       .  A
N641        C876   1.466       .  S
C642        C643   1.384       .  A
C642       C1119   1.501       .  S
C643        C644   1.357       .  A
C643        H646   1.080       .  S
C644        C645   1.383       .  A
C644        H647   1.083       .  S
C645       C1186   1.492       .  S
N648        C652   1.370       .  A
N648        C649   1.364       .  A
N648        C866   1.452       .  S
C649        C650   1.380       .  A
C649       C1109   1.479       .  S
C650        C651   1.363       .  A
C650        H653   1.083       .  S
C651        C652   1.382       .  A
C651        H654   1.082       .  S
C652       C1089   1.494       .  S
N655        C659   1.362       .  A
N655        C656   1.370       .  A
N655        C856   1.463       .  S
C656        C657   1.384       .  A
C656       C1076   1.496       .  S
C657        C658   1.363       .  A
C657        H660   1.082       .  S
C658        C659   1.379       .  A
C658        H661   1.083       .  S
C659       C1149   1.477       .  S
N662        C666   1.369       .  A
N662        C663   1.359       .  A
N662        C849   1.457       .  S
C663        C664   1.380       .  A
C663       C1196   1.471       .  S
C664        C665   1.363       .  A
C664        H667   1.083       .  S
C665        C666   1.383       .  A
C665        H668   1.082       .  S
C666       C1139   1.489       .  S
N669        C673   1.366       .  A
N669        C670   1.355       .  A
N669        C836   1.452       .  S
C670        C671   1.379       .  A
C670       C1069   1.469       .  S
C671        C672   1.364       .  A
C671        H674   1.083       .  S
C672        C673   1.384       .  A
C672        H675   1.081       .  S
C673        C926   1.488       .  S
N676        C680   1.372       .  A
N676        C677   1.373       .  A
N676        C826   1.474       .  S
C677        C678   1.382       .  A
C677       C1099   1.500       .  S
C678        C679   1.356       .  A
C678        H681   1.081       .  S
C679        C680   1.384       .  A
C679        H682   1.083       .  S
C680        C959   1.497       .  S
N683        C687   1.359       .  A
N683        C684   1.357       .  A
N683        C816   1.451       .  S
C684        C685   1.381       .  A
C684       C1129   1.468       .  S
C685        C686   1.367       .  A
C685        H688   1.083       .  S
C686        C687   1.383       .  A
C686        H689   1.082       .  S
C687        C989   1.484       .  S
N690        C694   1.373       .  A
N690        C691   1.376       .  A
N690        C806   1.481       .  S
C691        C692   1.384       .  A
C691       C1179   1.504       .  S
C692        C693   1.354       .  A
C692        H695   1.080       .  S
C693        C694   1.380       .  A
C693        H696   1.083       .  S
C694       C1019   1.491       .  S
O697       Zr733   2.467   1_565  S
O697        C708   1.297       .  A
O698       Zr732   2.437   1_566  S
O698        C709   1.292       .  A
O699       Zr705   2.465       .  S
O699        C710   1.297       .  A
O700       Zr705   2.445   1_554  S
O700        C711   1.294       .  A
O701       Zr735   2.501   1_565  S
O701        C711   1.303       .  A
O702       Zr734   2.415   1_565  S
O702        C710   1.288       .  A
O703       Zr705   2.476   1_455  S
O703        C709   1.298       .  A
O704       Zr705   2.432       .  S
O704        C708   1.292       .  A
Zr705       O706   2.345   1_656  S
Zr705       O707   2.350       .  S
Zr705       O715   2.359   1_556  S
Zr705       O713   2.336   1_665  S
O706       Zr732   2.345   1_565  S
O706       Zr735   2.350   1_465  S
O707       Zr733   2.339   1_565  S
O707       Zr734   2.333   1_565  S
C708       C1519   1.494       .  S
C709       C1456   1.492       .  S
C710       C1369   1.481       .  S
C711       C1309   1.505       .  S
H712        O713   0.964   1_565  S
O713       Zr732   2.329   1_556  S
O713       Zr734   2.338   1_455  S
H714        O715   0.965       .  S
O715       Zr733   2.359   1_564  S
O715       Zr735   2.348   1_565  S
O716       Zr732   2.422       .  S
O716        C739   1.289       .  A
O717       Zr733   2.449   1_554  S
O717        C740   1.295       .  A
O718       Zr734   2.426   1_455  S
O718        C741   1.289       .  A
O719       Zr735   2.503   1_455  S
O719        C742   1.303       .  A
O720       Zr735   2.489       .  S
O720        C743   1.301       .  A
O721       Zr734   2.427       .  S
O721        C744   1.290       .  A
O722       Zr736   2.507   1_556  S
O722        C745   1.304       .  A
O723       Zr736   2.491       .  S
O723        C746   1.303       .  A
O724       Zr734   2.424       .  S
O724        C745   1.289       .  A
O725       Zr735   2.437       .  S
O725        C746   1.294       .  A
O726       Zr732   2.447   1_556  S
O726        C741   1.293       .  A
O727       Zr733   2.486       .  S
O727        C744   1.299       .  A
O728       Zr733   2.447   1_554  S
O728        C743   1.294       .  A
O729       Zr732   2.430       .  S
O729        C742   1.291       .  A
O730       Zr736   2.518   1_455  S
O730        C739   1.307       .  A
O731       Zr736   2.498       .  S
O731        C740   1.304       .  A
Zr732       O738   2.341   1_554  S
Zr732       O750   2.347       .  S
Zr733       O737   2.355   1_556  S
Zr733       O748   2.358       .  S
Zr734       O738   2.335   1_655  S
Zr734       O748   2.341       .  S
Zr735       O737   2.364       .  S
Zr735       O750   2.373   1_655  S
Zr736       O737   2.370       .  S
Zr736       O738   2.347   1_654  S
Zr736       O750   2.378   1_655  S
Zr736       O748   2.372   1_554  S
C739       C1049   1.498       .  S
C740       C1489   1.506       .  S
C741       C1336   1.491       .  S
C742       C1159   1.507       .  S
C743       C1276   1.506       .  S
C744       C1426   1.501       .  S
C745       C1396   1.492       .  S
C746       C1229   1.499       .  S
H747        O748   0.965       .  S
H749        O750   0.965       .  S
O751       Zr787   2.453       .  S
O751        C762   1.294       .  A
O752       Zr786   2.494       .  S
O752        C763   1.304       .  A
O753       Zr759   2.436       .  S
O753        C764   1.292       .  A
O754       Zr759   2.432       .  S
O754        C765   1.291       .  A
O755       Zr789   2.493       .  S
O755        C765   1.301       .  A
O756       Zr788   2.445       .  S
O756        C764   1.292       .  A
O757       Zr759   2.461       .  S
O757        C763   1.296       .  A
O758       Zr759   2.427       .  S
O758        C762   1.291       .  A
Zr759       O760   2.338       .  S
Zr759       O761   2.343       .  S
Zr759       O769   2.345       .  S
Zr759       O767   2.337       .  S
O760       Zr786   2.362       .  S
O760       Zr789   2.354       .  S
O761       Zr787   2.338       .  S
O761       Zr788   2.324       .  S
C762        C919   1.479       .  S
C763        C896   1.517       .  S
C764        C909   1.497       .  S
C765        C889   1.503       .  S
H766        O767   0.966       .  S
O767       Zr786   2.359       .  S
O767       Zr788   2.353       .  S
H768        O769   0.965       .  S
O769       Zr787   2.350       .  S
O769       Zr789   2.332       .  S
O770       Zr786   2.494       .  S
O770        C793   1.304       .  A
O771       Zr787   2.448       .  S
O771        C794   1.294       .  A
O772       Zr788   2.420       .  S
O772        C795   1.288       .  A
O773       Zr789   2.442       .  S
O773        C796   1.294       .  A
O774       Zr789   2.475       .  S
O774        C797   1.299       .  A
O775       Zr788   2.441       .  S
O775        C798   1.292       .  A
O776       Zr790   2.491       .  S
O776        C799   1.301       .  A
O777       Zr790   2.475       .  S
O777        C800   1.299       .  A
O778       Zr788   2.424       .  S
O778        C799   1.290       .  A
O779       Zr789   2.444       .  S
O779        C800   1.294       .  A
O780       Zr786   2.516       .  S
O780        C795   1.307       .  A
O781       Zr787   2.458       .  S
O781        C798   1.294       .  A
O782       Zr787   2.422       .  S
O782        C797   1.290       .  A
O783       Zr786   2.517       .  S
O783        C796   1.307       .  A
O784       Zr790   2.446       .  S
O784        C793   1.295       .  A
O785       Zr790   2.503       .  S
O785        C794   1.303       .  A
Zr786       O792   2.367       .  S
Zr786       O804   2.373       .  S
Zr787       O791   2.347       .  S
Zr787       O802   2.343       .  S
Zr788       O792   2.347       .  S
Zr788       O802   2.349       .  S
Zr789       O791   2.354       .  S
Zr789       O804   2.368       .  S
Zr790       O791   2.350       .  S
Zr790       O792   2.361       .  S
Zr790       O804   2.376       .  S
Zr790       O802   2.353       .  S
C793        C879   1.507       .  S
C794        C859   1.512       .  S
C795        C809   1.494       .  S
C796        C829   1.508       .  S
C797        C839   1.498       .  S
C798        C819   1.485       .  S
C799        C846   1.497       .  S
C800        C869   1.505       .  S
H801        O802   0.966       .  S
H803        O804   0.965       .  S
C805        C806   1.423       .  A
C805        C810   1.412       .  A
C805        F812   1.352       .  S
C806        C807   1.424       .  A
C807        C808   1.410       .  A
C807        F814   1.352       .  S
C808        C809   1.404       .  A
C808        F813   1.358       .  S
C809        C810   1.404       .  A
C810        F811   1.358       .  S
C815        C816   1.410       .  A
C815        C820   1.405       .  A
C815        F822   1.354       .  S
C816        C817   1.411       .  A
C817        C818   1.402       .  A
C817        F824   1.358       .  S
C818        C819   1.405       .  A
C818        F823   1.356       .  S
C819        C820   1.404       .  A
C820        F821   1.357       .  S
C825        C826   1.419       .  A
C825        C830   1.406       .  A
C825        F832   1.356       .  S
C826        C827   1.418       .  A
C827        C828   1.421       .  A
C827        F834   1.355       .  S
C828        C829   1.411       .  A
C828        F833   1.357       .  S
C829        C830   1.407       .  A
C830        F831   1.359       .  S
C835        C836   1.406       .  A
C835        C840   1.399       .  A
C835        F842   1.357       .  S
C836        C837   1.411       .  A
C837        C838   1.408       .  A
C837        F844   1.355       .  S
C838        C839   1.410       .  A
C838        F843   1.357       .  S
C839        C840   1.414       .  A
C840        F841   1.358       .  S
C845        C846   1.410       .  A
C845        C850   1.401       .  A
C845        F852   1.359       .  S
C846        C847   1.408       .  A
C847        C848   1.413       .  A
C847        F854   1.358       .  S
C848        C849   1.415       .  A
C848        F853   1.355       .  S
C849        C850   1.408       .  A
C850        F851   1.357       .  S
C855        C856   1.415       .  A
C855        C860   1.420       .  A
C855        F862   1.357       .  S
C856        C857   1.412       .  A
C857        C858   1.404       .  A
C857        F864   1.357       .  S
C858        C859   1.412       .  A
C858        F863   1.358       .  S
C859        C860   1.414       .  A
C860        F861   1.357       .  S
C865        C866   1.408       .  A
C865        C870   1.414       .  A
C865        F872   1.357       .  S
C866        C867   1.407       .  A
C867        C868   1.399       .  A
C867        F874   1.357       .  S
C868        C869   1.412       .  A
C868        F873   1.358       .  S
C869        C870   1.415       .  A
C870        F871   1.355       .  S
C875        C876   1.416       .  A
C875        C880   1.416       .  A
C875        F882   1.354       .  S
C876        C877   1.414       .  A
C877        C878   1.403       .  A
C877        F884   1.357       .  S
C878        C879   1.410       .  A
C878        F883   1.355       .  S
C879        C880   1.410       .  A
C880        F881   1.358       .  S
C885        C886   1.414       .  A
C885        C890   1.417       .  A
C885        F892   1.356       .  S
C886        C887   1.407       .  A
C887        C888   1.398       .  A
C887        F894   1.357       .  S
C888        C889   1.412       .  A
C888        F893   1.359       .  S
C889        C890   1.411       .  A
C890        F891   1.357       .  S
C895        C896   1.418       .  A
C895        C900   1.416       .  A
C895        F902   1.358       .  S
C896        C897   1.411       .  A
C897        C898   1.410       .  A
C897        F904   1.358       .  S
C898        C899   1.418       .  A
C898        F903   1.356       .  S
C899        C900   1.408       .  A
C900        F901   1.357       .  S
C905        C906   1.402       .  A
C905        C910   1.403       .  A
C905        F912   1.357       .  S
C906        C907   1.402       .  A
C907        C908   1.395       .  A
C907        F914   1.357       .  S
C908        C909   1.414       .  A
C908        F913   1.358       .  S
C909        C910   1.416       .  A
C910        F911   1.357       .  S
C915        C916   1.406       .  A
C915        C920   1.392       .  A
C915        F922   1.357       .  S
C916        C917   1.409       .  A
C917        C918   1.405       .  A
C917        F924   1.356       .  S
C918        C919   1.408       .  A
C918        F923   1.358       .  S
C919        C920   1.405       .  A
C920        F921   1.358       .  S
C925        C926   1.406       .  A
C925        C930   1.396       .  A
C925        F932   1.357       .  S
C926        C927   1.415       .  A
C927        C928   1.401       .  A
C927        F934   1.358       .  S
C928        C929   1.402       .  A
C928        F933   1.358       .  S
C929        C930   1.408       .  A
C930        F931   1.358       .  S
C935        C936   1.414       .  A
C935        C940   1.404       .  A
C935        F942   1.358       .  S
C936        C937   1.404       .  A
C937        C938   1.406       .  A
C937        F944   1.358       .  S
C938        C939   1.417       .  A
C938        F943   1.358       .  S
C939        C940   1.405       .  A
C940        F941   1.357       .  S
C945        C946   1.404       .  A
C945        C950   1.387       .  A
C945        F952   1.358       .  S
C946        C947   1.414       .  A
C947        C948   1.401       .  A
C947        F954   1.357       .  S
C948        C949   1.400       .  A
C948        F953   1.357       .  S
C949        C950   1.404       .  A
C950        F951   1.358       .  S
C955        C956   1.407       .  A
C955        C960   1.406       .  A
C955        F962   1.358       .  S
C956        C957   1.402       .  A
C957        C958   1.400       .  A
C957        F964   1.358       .  S
C958        C959   1.411       .  A
C958        F963   1.358       .  S
C959        C960   1.412       .  A
C960        F961   1.355       .  S
C965        C966   1.423       .  A
C965        C970   1.392       .  A
C965        F972   1.352       .  S
C966        C967   1.406       .  A
C967        C968   1.407       .  A
C967        F974   1.357       .  S
C968        C969   1.415       .  A
C968        F973   1.357       .  S
C969        C970   1.387       .  A
C970        F971   1.358       .  S
C975        C976   1.408       .  A
C975        C980   1.401       .  A
C975        F982   1.353       .  S
C976        C977   1.406       .  A
C977        C978   1.403       .  A
C977        F984   1.358       .  S
C978        C979   1.407       .  A
C978        F983   1.358       .  S
C979        C980   1.402       .  A
C980        F981   1.358       .  S
C985        C986   1.404       .  A
C985        C990   1.395       .  A
C985        F992   1.358       .  S
C986        C987   1.403       .  A
C987        C988   1.401       .  A
C987        F994   1.358       .  S
C988        C989   1.412       .  A
C988        F993   1.356       .  S
C989        C990   1.408       .  A
C990        F991   1.358       .  S
C995        C996   1.406       .  A
C995       C1000   1.396       .  A
C995       F1002   1.357       .  S
C996        C997   1.410       .  A
C997        C998   1.392       .  A
C997       F1004   1.357       .  S
C998        C999   1.403       .  A
C998       F1003   1.359       .  S
C999       C1000   1.402       .  A
C1000      F1001   1.358       .  S
C1005      C1006   1.405       .  A
C1005      C1010   1.399       .  A
C1005      F1012   1.358       .  S
C1006      C1007   1.405       .  A
C1007      C1008   1.393       .  A
C1007      F1014   1.359       .  S
C1008      C1009   1.404       .  A
C1008      F1013   1.359       .  S
C1009      C1010   1.404       .  A
C1010      F1011   1.357       .  S
C1015      C1016   1.408       .  A
C1015      C1020   1.405       .  A
C1015      F1022   1.358       .  S
C1016      C1017   1.404       .  A
C1017      C1018   1.401       .  A
C1017      F1024   1.357       .  S
C1018      C1019   1.409       .  A
C1018      F1023   1.358       .  S
C1019      C1020   1.409       .  A
C1020      F1021   1.357       .  S
C1025      C1026   1.403       .  A
C1025      C1030   1.394       .  A
C1025      F1032   1.358       .  S
C1026      C1027   1.401       .  A
C1027      C1028   1.391       .  A
C1027      F1034   1.358       .  S
C1028      C1029   1.404       .  A
C1028      F1033   1.358       .  S
C1029      C1030   1.405       .  A
C1030      F1031   1.357       .  S
C1035      C1036   1.413       .  A
C1035      C1040   1.397       .  A
C1035      F1042   1.359       .  S
C1036      C1037   1.397       .  A
C1037      C1038   1.402       .  A
C1037      F1044   1.358       .  S
C1038      C1039   1.425       .  A
C1038      F1043   1.357       .  S
C1039      C1040   1.402       .  A
C1040      F1041   1.356       .  S
C1045      C1046   1.427       .  A
C1045      C1050   1.408       .  A
C1045      F1052   1.354       .  S
C1046      C1047   1.422   1_554  A
C1047      C1048   1.414       .  A
C1047      F1054   1.353       .  S
C1048      C1049   1.405   1_556  A
C1048      F1053   1.356       .  S
C1049      C1050   1.403       .  A
C1050      F1051   1.358       .  S
C1055      C1056   1.411       .  A
C1055      C1060   1.405       .  A
C1055      F1062   1.355       .  S
C1056      C1057   1.412       .  A
C1057      C1058   1.403       .  A
C1057      F1064   1.358       .  S
C1058      C1059   1.404       .  A
C1058      F1063   1.358       .  S
C1059      C1060   1.406       .  A
C1060      F1061   1.358       .  S
C1065      C1066   1.413       .  A
C1065      C1070   1.398       .  A
C1065      F1072   1.358       .  S
C1066      C1067   1.405       .  A
C1067      C1068   1.395       .  A
C1067      F1074   1.358       .  S
C1068      C1069   1.406       .  A
C1068      F1073   1.358       .  S
C1069      C1070   1.399       .  A
C1070      F1071   1.357       .  S
C1075      C1076   1.415       .  A
C1075      C1080   1.405       .  A
C1075      F1082   1.358       .  S
C1076      C1077   1.407       .  A
C1077      C1078   1.400       .  A
C1077      F1084   1.356       .  S
C1078      C1079   1.409       .  A
C1078      F1083   1.358       .  S
C1079      C1080   1.404       .  A
C1080      F1081   1.358       .  S
C1085      C1086   1.404       .  A
C1085      C1090   1.403       .  A
C1085      F1092   1.358       .  S
C1086      C1087   1.412       .  A
C1087      C1088   1.406       .  A
C1087      F1094   1.358       .  S
C1088      C1089   1.406       .  A
C1088      F1093   1.357       .  S
C1089      C1090   1.413       .  A
C1090      F1091   1.358       .  S
C1095      C1096   1.402       .  A
C1095      C1100   1.401       .  A
C1095      F1102   1.358       .  S
C1096      C1097   1.411       .  A
C1097      C1098   1.407       .  A
C1097      F1104   1.358       .  S
C1098      C1099   1.409       .  A
C1098      F1103   1.356       .  S
C1099      C1100   1.415       .  A
C1100      F1101   1.358       .  S
C1105      C1106   1.409       .  A
C1105      C1110   1.404       .  A
C1105      F1112   1.358       .  S
C1106      C1107   1.407       .  A
C1107      C1108   1.401       .  A
C1107      F1114   1.358       .  S
C1108      C1109   1.406       .  A
C1108      F1113   1.358       .  S
C1109      C1110   1.406       .  A
C1110      F1111   1.356       .  S
C1115      C1116   1.408       .  A
C1115      C1120   1.403       .  A
C1115      F1122   1.358       .  S
C1116      C1117   1.401       .  A
C1117      C1118   1.400       .  A
C1117      F1124   1.358       .  S
C1118      C1119   1.417       .  A
C1118      F1123   1.357       .  S
C1119      C1120   1.409       .  A
C1120      F1121   1.355       .  S
C1125      C1126   1.407       .  A
C1125      C1130   1.400       .  A
C1125      F1132   1.357       .  S
C1126      C1127   1.401       .  A
C1127      C1128   1.387       .  A
C1127      F1134   1.359       .  S
C1128      C1129   1.406       .  A
C1128      F1133   1.357       .  S
C1129      C1130   1.402       .  A
C1130      F1131   1.357       .  S
C1135      C1136   1.409       .  A
C1135      C1140   1.401       .  A
C1135      F1142   1.358       .  S
C1136      C1137   1.404       .  A
C1137      C1138   1.403       .  A
C1137      F1144   1.358       .  S
C1138      C1139   1.413       .  A
C1138      F1143   1.358       .  S
C1139      C1140   1.405       .  A
C1140      F1141   1.357       .  S
C1145      C1146   1.401       .  A
C1145      C1150   1.401       .  A
C1145      F1152   1.358       .  S
C1146      C1147   1.407       .  A
C1147      C1148   1.400       .  A
C1147      F1154   1.358       .  S
C1148      C1149   1.402       .  A
C1148      F1153   1.357       .  S
C1149      C1150   1.410       .  A
C1150      F1151   1.357       .  S
C1155      C1156   1.405       .  A
C1155      C1160   1.400       .  A
C1155      F1162   1.358   1_545  S
C1156      C1157   1.409       .  A
C1157      C1158   1.414       .  A
C1157      F1164   1.355       .  S
C1158      C1159   1.412       .  A
C1158      F1163   1.355       .  S
C1159      C1160   1.414       .  A
C1160      F1161   1.358   1_545  S
C1165      C1166   1.407       .  A
C1165      C1170   1.403       .  A
C1165      F1172   1.358       .  S
C1166      C1167   1.402       .  A
C1167      C1168   1.398       .  A
C1167      F1174   1.358       .  S
C1168      C1169   1.409       .  A
C1168      F1173   1.358       .  S
C1169      C1170   1.407       .  A
C1170      F1171   1.358       .  S
C1175      C1176   1.409       .  A
C1175      C1180   1.407       .  A
C1175      F1182   1.357       .  S
C1176      C1177   1.401       .  A
C1177      C1178   1.398       .  A
C1177      F1184   1.359       .  S
C1178      C1179   1.417       .  A
C1178      F1183   1.357       .  S
C1179      C1180   1.410       .  A
C1180      F1181   1.356       .  S
C1185      C1186   1.411       .  A
C1185      C1190   1.400       .  A
C1185      F1192   1.354       .  S
C1186      C1187   1.412       .  A
C1187      C1188   1.400       .  A
C1187      F1194   1.358       .  S
C1188      C1189   1.402       .  A
C1188      F1193   1.358       .  S
C1189      C1190   1.404       .  A
C1190      F1191   1.358       .  S
C1195      C1196   1.406       .  A
C1195      C1200   1.397       .  A
C1195      F1202   1.358       .  S
C1196      C1197   1.401       .  A
C1197      C1198   1.399       .  A
C1197      F1204   1.356       .  S
C1198      C1199   1.409       .  A
C1198      F1203   1.358       .  S
C1199      C1200   1.405       .  A
C1200      F1201   1.358       .  S
C1205      C1206   1.407       .  A
C1205      C1210   1.399       .  A
C1205      F1212   1.358       .  S
C1206      C1207   1.402       .  A
C1207      C1208   1.402       .  A
C1207      F1214   1.359       .  S
C1208      C1209   1.418       .  A
C1208      F1213   1.358       .  S
C1209      C1210   1.408       .  A
C1210      F1211   1.355       .  S
C1215      C1216   1.404       .  A
C1215      C1220   1.402       .  A
C1215      F1222   1.358       .  S
C1216      C1217   1.405       .  A
C1217      C1218   1.397       .  A
C1217      F1224   1.358       .  S
C1218      C1219   1.406       .  A
C1218      F1223   1.358       .  S
C1219      C1220   1.407       .  A
C1220      F1221   1.356       .  S
C1225      C1226   1.415   1_455  A
C1225      C1230   1.399       .  A
C1225      F1232   1.357       .  S
C1226      C1227   1.414       .  A
C1227      C1228   1.416       .  A
C1227      F1234   1.355       .  S
C1228      C1229   1.409       .  A
C1228      F1233   1.357       .  S
C1229      C1230   1.408   1_655  A
C1230      F1231   1.357       .  S
C1235      C1236   1.410       .  A
C1235      C1240   1.397       .  A
C1235      F1242   1.353       .  S
C1236      C1237   1.411       .  A
C1237      C1238   1.403       .  A
C1237      F1244   1.358       .  S
C1238      C1239   1.404       .  A
C1238      F1243   1.358       .  S
C1239      C1240   1.401       .  A
C1240      F1241   1.358       .  S
C1245      C1246   1.407       .  A
C1245      C1250   1.402       .  A
C1245      F1252   1.358       .  S
C1246      C1247   1.402       .  A
C1247      C1248   1.398       .  A
C1247      F1254   1.358       .  S
C1248      C1249   1.412       .  A
C1248      F1253   1.357       .  S
C1249      C1250   1.410       .  A
C1250      F1251   1.355       .  S
C1255      C1256   1.403       .  A
C1255      C1260   1.402       .  A
C1255      F1262   1.359       .  S
C1256      C1257   1.412       .  A
C1257      C1258   1.408       .  A
C1257      F1264   1.358       .  S
C1258      C1259   1.409       .  A
C1258      F1263   1.356       .  S
C1259      C1260   1.417       .  A
C1260      F1261   1.358       .  S
C1265      C1266   1.407       .  A
C1265      C1270   1.406       .  A
C1265      F1272   1.358       .  S
C1266      C1267   1.407       .  A
C1267      C1268   1.404       .  A
C1267      F1274   1.358       .  S
C1268      C1269   1.409       .  A
C1268      F1273   1.358       .  S
C1269      C1270   1.411       .  A
C1270      F1271   1.357       .  S
C1275      C1276   1.411   1_565  A
C1275      C1280   1.406   1_565  A
C1275      F1282   1.357       .  S
C1276      C1277   1.411       .  A
C1277      C1278   1.414       .  A
C1277      F1284   1.357       .  S
C1278      C1279   1.411       .  A
C1278      F1283   1.356       .  S
C1279      C1280   1.413       .  A
C1280      F1281   1.357   1_545  S
C1285      C1286   1.408       .  A
C1285      C1290   1.397       .  A
C1285      F1292   1.354       .  S
C1286      C1287   1.417       .  A
C1287      C1288   1.401       .  A
C1287      F1294   1.357       .  S
C1288      C1289   1.400       .  A
C1288      F1293   1.358       .  S
C1289      C1290   1.404       .  A
C1290      F1291   1.358       .  S
C1295      C1296   1.410       .  A
C1295      C1300   1.400       .  A
C1295      F1302   1.353       .  S
C1296      C1297   1.412       .  A
C1297      C1298   1.399       .  A
C1297      F1304   1.352       .  S
C1298      C1299   1.402       .  A
C1298      F1303   1.358       .  S
C1299      C1300   1.406       .  A
C1300      F1301   1.358       .  S
C1305      C1306   1.421       .  A
C1305      C1310   1.419       .  A
C1305      F1312   1.355       .  S
C1306      C1307   1.419   1_655  A
C1307      C1308   1.401       .  A
C1307      F1314   1.356       .  S
C1308      C1309   1.405   1_455  A
C1308      F1313   1.356       .  S
C1309      C1310   1.410       .  A
C1310      F1311   1.358       .  S
C1315      C1316   1.408       .  A
C1315      C1320   1.396       .  A
C1315      F1322   1.358       .  S
C1316      C1317   1.405       .  A
C1317      C1318   1.398       .  A
C1317      F1324   1.357       .  S
C1318      C1319   1.408       .  A
C1318      F1323   1.358       .  S
C1319      C1320   1.403       .  A
C1320      F1321   1.358       .  S
C1325      C1326   1.405       .  A
C1325      C1330   1.400       .  A
C1325      F1332   1.357       .  S
C1326      C1327   1.401       .  A
C1327      C1328   1.389       .  A
C1327      F1334   1.358       .  S
C1328      C1329   1.405       .  A
C1328      F1333   1.358       .  S
C1329      C1330   1.410       .  A
C1330      F1331   1.358       .  S
C1335      C1336   1.414       .  A
C1335      C1340   1.397       .  A
C1335      F1342   1.358       .  S
C1336      C1337   1.413       .  A
C1337      C1338   1.397       .  A
C1337      F1344   1.356       .  S
C1338      C1339   1.401       .  A
C1338      F1343   1.357       .  S
C1339      C1340   1.404       .  A
C1340      F1341   1.357       .  S
C1345      C1346   1.405       .  A
C1345      C1350   1.391       .  A
C1345      F1352   1.358       .  S
C1346      C1347   1.399       .  A
C1347      C1348   1.401       .  A
C1347      F1354   1.357       .  S
C1348      C1349   1.414       .  A
C1348      F1353   1.357       .  S
C1349      C1350   1.404       .  A
C1350      F1351   1.358       .  S
C1355      C1356   1.409       .  A
C1355      C1360   1.399       .  A
C1355      F1362   1.357       .  S
C1356      C1357   1.407       .  A
C1357      C1358   1.390       .  A
C1357      F1364   1.357       .  S
C1358      C1359   1.404       .  A
C1358      F1363   1.359       .  S
C1359      C1360   1.402       .  A
C1360      F1361   1.358       .  S
C1365      C1366   1.409   1_455  A
C1365      C1370   1.396       .  A
C1365      F1372   1.357       .  S
C1366      C1367   1.411       .  A
C1367      C1368   1.401       .  A
C1367      F1374   1.352       .  S
C1368      C1369   1.404       .  A
C1368      F1373   1.357       .  S
C1369      C1370   1.408   1_655  A
C1370      F1371   1.359       .  S
C1375      C1376   1.402       .  A
C1375      C1380   1.398       .  A
C1375      F1382   1.358       .  S
C1376      C1377   1.403       .  A
C1377      C1378   1.399       .  A
C1377      F1384   1.358       .  S
C1378      C1379   1.414       .  A
C1378      F1383   1.354       .  S
C1379      C1380   1.414       .  A
C1380      F1381   1.357       .  S
C1385      C1386   1.413       .  A
C1385      C1390   1.401       .  A
C1385      F1392   1.354       .  S
C1386      C1387   1.419       .  A
C1387      C1388   1.401       .  A
C1387      F1394   1.355       .  S
C1388      C1389   1.403       .  A
C1388      F1393   1.357       .  S
C1389      C1390   1.405       .  A
C1390      F1391   1.358       .  S
C1395      C1396   1.405       .  A
C1395      C1400   1.411       .  A
C1395      F1402   1.358       .  S
C1396      C1397   1.403   1_655  A
C1397      C1398   1.405       .  A
C1397      F1404   1.356       .  S
C1398      C1399   1.420   1_455  A
C1398      F1403   1.356       .  S
C1399      C1400   1.424       .  A
C1400      F1401   1.355       .  S
C1405      C1406   1.404       .  A
C1405      C1410   1.403       .  A
C1405      F1412   1.358       .  S
C1406      C1407   1.409       .  A
C1407      C1408   1.402       .  A
C1407      F1414   1.358       .  S
C1408      C1409   1.407       .  A
C1408      F1413   1.356       .  S
C1409      C1410   1.413       .  A
C1410      F1411   1.358       .  S
C1415      C1416   1.407       .  A
C1415      C1420   1.398       .  A
C1415      F1422   1.358       .  S
C1416      C1417   1.411       .  A
C1417      C1418   1.406       .  A
C1417      F1424   1.357       .  S
C1418      C1419   1.405       .  A
C1418      F1423   1.358       .  S
C1419      C1420   1.404       .  A
C1420      F1421   1.358       .  S
C1425      C1426   1.411       .  A
C1425      C1430   1.413       .  A
C1425      F1432   1.357       .  S
C1426      C1427   1.413       .  A
C1427      C1428   1.398       .  A
C1427      F1434   1.359   1_545  S
C1428      C1429   1.405       .  A
C1428      F1433   1.358       .  S
C1429      C1430   1.409       .  A
C1430      F1431   1.356       .  S
C1435      C1436   1.406       .  A
C1435      C1440   1.390       .  A
C1435      F1442   1.358       .  S
C1436      C1437   1.399       .  A
C1437      C1438   1.399       .  A
C1437      F1444   1.358       .  S
C1438      C1439   1.412       .  A
C1438      F1443   1.357       .  S
C1439      C1440   1.402       .  A
C1440      F1441   1.358       .  S
C1445      C1446   1.411       .  A
C1445      C1450   1.398       .  A
C1445      F1452   1.357       .  S
C1446      C1447   1.411       .  A
C1447      C1448   1.396       .  A
C1447      F1454   1.356       .  S
C1448      C1449   1.404       .  A
C1448      F1453   1.359       .  S
C1449      C1450   1.403       .  A
C1450      F1451   1.358       .  S
C1455      C1456   1.408       .  A
C1455      C1460   1.398       .  A
C1455      F1462   1.355       .  S
C1456      C1457   1.407   1_556  A
C1457      C1458   1.408       .  A
C1457      F1464   1.355       .  S
C1458      C1459   1.411   1_554  A
C1458      F1463   1.356       .  S
C1459      C1460   1.406       .  A
C1460      F1461   1.357       .  S
C1465      C1466   1.414       .  A
C1465      C1470   1.399       .  A
C1465      F1472   1.358       .  S
C1466      C1467   1.410       .  A
C1467      C1468   1.411       .  A
C1467      F1474   1.357       .  S
C1468      C1469   1.414       .  A
C1468      F1473   1.358       .  S
C1469      C1470   1.402       .  A
C1470      F1471   1.358       .  S
C1475      C1476   1.413       .  A
C1475      C1480   1.405       .  A
C1475      F1482   1.358       .  S
C1476      C1477   1.409       .  A
C1477      C1478   1.405       .  A
C1477      F1484   1.356       .  S
C1478      C1479   1.409       .  A
C1478      F1483   1.358       .  S
C1479      C1480   1.404       .  A
C1480      F1481   1.358       .  S
C1485      C1486   1.414   1_556  A
C1485      C1490   1.417       .  A
C1485      F1492   1.354       .  S
C1486      C1487   1.416       .  A
C1487      C1488   1.407       .  A
C1487      F1494   1.357       .  S
C1488      C1489   1.410       .  A
C1488      F1493   1.359       .  S
C1489      C1490   1.410   1_554  A
C1490      F1491   1.357       .  S
C1495      C1496   1.410       .  A
C1495      C1500   1.392       .  A
C1495      F1502   1.358       .  S
C1496      C1497   1.415       .  A
C1497      C1498   1.401       .  A
C1497      F1504   1.357       .  S
C1498      C1499   1.398       .  A
C1498      F1503   1.357       .  S
C1499      C1500   1.402       .  A
C1500      F1501   1.358       .  S
C1505      C1506   1.407       .  A
C1505      C1510   1.392       .  A
C1505      F1512   1.359       .  S
C1506      C1507   1.403       .  A
C1507      C1508   1.398       .  A
C1507      F1514   1.358       .  S
C1508      C1509   1.407       .  A
C1508      F1513   1.358       .  S
C1509      C1510   1.405       .  A
C1510      F1511   1.358       .  S
C1515      C1516   1.409   1_554  A
C1515      C1520   1.408       .  A
C1515      F1522   1.355       .  S
C1516      C1517   1.406       .  A
C1517      C1518   1.395       .  A
C1517      F1524   1.357       .  S
C1518      C1519   1.411       .  A
C1518      F1523   1.358       .  S
C1519      C1520   1.411   1_556  A
C1520      F1521   1.356       .  S
