geometry optimzed in LAMMPS
_audit_creation_date              2020-12-01 
_audit_creation_method            'lammps2cif' 
_symmetry_space_group_name_H-M    'P1' 
_symmetry_Int_Tables_number       1 
_symmetry_cell_setting            triclinic 
loop_ 
_symmetry_equiv_pos_as_xyz 
  x,y,z 
_cell_length_a                    47.93742046 
_cell_length_b                    47.953947070711905 
_cell_length_c                    24.098429839051278 
_cell_angle_alpha                 90.3293285264071 
_cell_angle_beta                  88.81727496355222 
_cell_angle_gamma                 90.39333603912416 
loop_ 
_atom_site_label 
_atom_site_type_symbol 
_atom_site_fract_x 
_atom_site_fract_y 
_atom_site_fract_z 
_atom_site_charge 
C1          C  0.10615687  0.11991788  0.22089795     0.30400
C2          C  0.13786062  0.15195212  0.28814191     0.30400
C3          C  0.13413532  0.12946570  0.19612793    -0.05800
C4          C  0.09217825  0.14747003  0.24044076    -0.06600
C5          C  0.11315714  0.10641546  0.27772350    -0.06500
C6          C  0.15045518  0.14584399  0.22919211    -0.05800
C7          C  0.10817882  0.16410052  0.27550151    -0.06600
C8          C  0.12931242  0.12279490  0.31174549    -0.06500
C9          C  0.17454545  0.15178939  0.19720783    -0.31900
N10         N  0.17277217  0.13914471  0.14608616     0.14600
C11         C  0.14794437  0.12549006  0.14567111    -0.31900
H12         H  0.14062911  0.11290565  0.11140982     0.16600
C13         C  0.09072600  0.18621079  0.29156973    -0.30800
N14         N  0.06595153  0.18453615  0.26461484     0.13400
C15         C  0.06635293  0.16021464  0.23524719    -0.30800
C16         C  0.13238804  0.10807111  0.36122991    -0.31100
N17         N  0.11894186  0.08288728  0.35833039     0.13900
H18         H  0.14390434  0.11521863  0.39680648     0.16500
C19         C  0.10651424  0.08215059  0.30770931    -0.31100
H20         H  0.09346802  0.06515109  0.29353675     0.16500
H21         H  0.04915823  0.15252456  0.21099321     0.16500
H22         H  0.19223930  0.16401872  0.21067924     0.16600
H23         H  0.09523303  0.20224855  0.32174984     0.16500
N24         N  0.49300483  0.21347331  0.25620319    -0.36200
N25         N  0.03611325  0.25716980  0.26079210    -0.56800
N26         N  0.49266935  0.29991189  0.24915438    -0.36200
N27         N  0.44937124  0.25655562  0.25627094    -0.56800
C28         C  0.01553524  0.19811375  0.27050238     0.27400
C29         C  0.46965028  0.19787273  0.26636993     0.27400
C30         C  0.01526136  0.31548923  0.26293574     0.27400
C31         C  0.46959804  0.31509075  0.26226799     0.27400
C32         C  0.05214837  0.23421208  0.25131477     0.36000
C33         C  0.05175532  0.27979599  0.24558486     0.36000
C34         C  0.43411336  0.23355007  0.24324071     0.36000
C35         C  0.43399878  0.27899388  0.24173236     0.36000
C36         C  0.00627495  0.17250840  0.29025227    -0.21500
C37         C  0.47746895  0.17235878  0.28762293    -0.21500
C38         C  0.00638927  0.34047796  0.28601223    -0.21500
C39         C  0.47763879  0.34032030  0.28538607    -0.21500
C40         C  0.07784855  0.24236510  0.22951341    -0.22600
C41         C  0.07756397  0.27102684  0.22579392    -0.22600
C42         C  0.40926629  0.24149104  0.21998377    -0.22600
C43         C  0.40912069  0.27014886  0.21913158    -0.22600
C44         C  0.04421366  0.20599186  0.26300080    -0.17900
C45         C  0.44165495  0.20545067  0.25394336    -0.17900
C46         C  0.44162440  0.30736004  0.25083690    -0.17900
C47         C  0.04360728  0.30829586  0.25241536    -0.17900
H48         H  0.01892551  0.15558714  0.30495570     0.15000
H49         H  0.46383652  0.15535152  0.30007035     0.15000
H50         H  0.01928005  0.35692196  0.30254194     0.15000
H51         H  0.46421449  0.35683525  0.30068127     0.15000
H52         H  0.09479742  0.22901715  0.21606098     0.13300
H53         H  0.09429820  0.28387093  0.20930060     0.13300
H54         H  0.39319134  0.22802659  0.20394223     0.13300
H55         H  0.39275051  0.28291581  0.20266648     0.13300
H56         H  0.49363261  0.23236825  0.23526625     0.26500
H57         H  0.49309947  0.28132146  0.22660172     0.26500
C58         C  0.35178627  0.36461354  0.27528099     0.30400
C59         C  0.38489212  0.39656464  0.20920548     0.30400
C60         C  0.33867650  0.37372558  0.21955190    -0.05800
C61         C  0.36026871  0.39330713  0.30098128    -0.06600
C62         C  0.37985297  0.35161764  0.25802656    -0.06500
C63         C  0.35603678  0.38924125  0.18544814    -0.05800
C64         C  0.37801720  0.40922511  0.26779654    -0.06600
C65         C  0.39724730  0.36795778  0.22535660    -0.06500
C66         C  0.34146660  0.39502803  0.13744370    -0.31900
N67         N  0.31521228  0.38388457  0.14138605     0.14600
C68         C  0.31322402  0.37151918  0.19229863    -0.31900
H69         H  0.29461988  0.36114522  0.20808483     0.16600
C70         C  0.38477800  0.43307287  0.29850717    -0.30800
N71         N  0.37069549  0.43282166  0.34835679     0.13400
C72         C  0.35532969  0.40874596  0.34963348    -0.30800
C73         C  0.42261973  0.35393107  0.22173163    -0.31100
N74         N  0.42031937  0.32894193  0.24829373     0.13900
H75         H  0.44157038  0.36142118  0.20157524     0.16500
C76         C  0.39421893  0.32769733  0.27141115    -0.31100
H77         H  0.38641102  0.31088184  0.29730228     0.16500
H78         H  0.34146421  0.40292090  0.38366377     0.16500
H79         H  0.34944002  0.40688327  0.10240363     0.16600
H80         H  0.39879793  0.44962327  0.28521513     0.16500
N81         N  0.11883343  0.00914878  0.41596494    -0.36200
N82         N  0.12191855  0.46551650  0.50162693    -0.56800
N83         N  0.11501830  0.00874171  0.58877927    -0.36200
N84         N  0.11785799  0.05259908  0.50332589    -0.56800
C85         C  0.12689701  0.48642687  0.38525831     0.27400
C86         C  0.12452448  0.03254411  0.38561075     0.27400
C87         C  0.12215790  0.48581897  0.61841638     0.27400
C88         C  0.12071385  0.03178622  0.62011043     0.27400
C89         C  0.11682278  0.44980416  0.45585569     0.36000
C90         C  0.11431082  0.44966665  0.54602730     0.36000
C91         C  0.11266374  0.06851933  0.45797628     0.36000
C92         C  0.11117037  0.06817480  0.54921435     0.36000
C93         C  0.13794695  0.49559258  0.33496899    -0.21500
C94         C  0.13662450  0.02443783  0.33542670    -0.21500
C95         C  0.13279505  0.49449801  0.66869467    -0.21500
C96         C  0.13188275  0.02328489  0.66981974    -0.21500
C97         C  0.10550772  0.42433815  0.47134151    -0.22600
C98         C  0.10399876  0.42417789  0.52830257    -0.22600
C99         C  0.10236559  0.09411227  0.47536788    -0.22600
C100        C  0.10137575  0.09387893  0.53261296    -0.22600
C101        C  0.12316303  0.45762957  0.40026963    -0.17900
C102        C  0.11835180  0.06091873  0.40117383    -0.17900
C103        C  0.11531586  0.06019774  0.60582407    -0.17900
C104        C  0.11804814  0.45727735  0.60237258    -0.17900
H105        H  0.14637964  0.48284519  0.30151953     0.15000
H106        H  0.14435663  0.03795418  0.30293724     0.15000
H107        H  0.14085862  0.48147068  0.70100340     0.15000
H108        H  0.13912952  0.03639935  0.70330028     0.15000
H109        H  0.09829442  0.40788541  0.44437063     0.13300
H110        H  0.09576452  0.40735659  0.55363279     0.13300
H111        H  0.09592175  0.11120141  0.44958909     0.13300
H112        H  0.09399342  0.11075668  0.55888865     0.13300
H113        H  0.10766467  0.00856954  0.45342256     0.26500
H114        H  0.10442761  0.00851936  0.55149012     0.26500
N115        N  0.37435126  0.00608975  0.40554476    -0.36200
N116        N  0.37122488  0.46326577  0.49341361    -0.56800
N117        N  0.37480008  0.00726030  0.57774699    -0.36200
N118        N  0.37261143  0.05002492  0.49060428    -0.56800
C119        C  0.36675894  0.48292194  0.37643965     0.27400
C120        C  0.36761298  0.02883378  0.37501060     0.27400
C121        C  0.36781897  0.48477684  0.60936028     0.27400
C122        C  0.36775610  0.03042771  0.60740037     0.27400
C123        C  0.37658243  0.44706347  0.44785984     0.36000
C124        C  0.37729078  0.44781228  0.53887536     0.36000
C125        C  0.37856745  0.06557639  0.44482715     0.36000
C126        C  0.37851580  0.06615109  0.53548931     0.36000
C127        C  0.35478181  0.49110102  0.32743611    -0.21500
C128        C  0.35535906  0.01989406  0.32637420    -0.21500
C129        C  0.35593453  0.49380179  0.65911559    -0.21500
C130        C  0.35582712  0.02250723  0.65779261    -0.21500
C131        C  0.38639763  0.42145435  0.46456458    -0.22600
C132        C  0.38681154  0.42186238  0.52183425    -0.22600
C133        C  0.38870084  0.09147039  0.46090793    -0.22600
C134        C  0.38856609  0.09185980  0.51811153    -0.22600
C135        C  0.37150136  0.45458899  0.39158603    -0.17900
C136        C  0.37307967  0.05737101  0.38905093    -0.17900
C137        C  0.37335440  0.05852610  0.59184699    -0.17900
C138        C  0.37296208  0.45638495  0.59547585    -0.17900
H139        H  0.34592057  0.47767581  0.29624014     0.15000
H140        H  0.34721174  0.03272258  0.29375714     0.15000
H141        H  0.34784807  0.48107592  0.69278479     0.15000
H142        H  0.34765044  0.03600422  0.69022511     0.15000
H143        H  0.39318503  0.40446833  0.43812976     0.13300
H144        H  0.39373470  0.40505124  0.54780221     0.13300
H145        H  0.39556011  0.10838660  0.43431989     0.13300
H146        H  0.39522105  0.10910700  0.54388466     0.13300
H147        H  0.38589533  0.00627699  0.44166834     0.26500
H148        H  0.38634105  0.00688218  0.54066905     0.26500
C149        C  0.10092345  0.40162102  0.78200381     0.30400
C150        C  0.13402662  0.36793174  0.72104210     0.30400
C151        C  0.12891617  0.39363369  0.80970189    -0.05800
C152        C  0.08798038  0.37239142  0.76903818    -0.06600
C153        C  0.10971050  0.41288698  0.72466942    -0.06500
C154        C  0.14580736  0.37679746  0.77740966    -0.05800
C155        C  0.10464532  0.35565027  0.73562940    -0.06600
C156        C  0.12629785  0.39582580  0.69245695    -0.06500
C157        C  0.17011036  0.37192955  0.80619963    -0.31900
N158        N  0.16881668  0.38529603  0.85618091     0.14600
C159        C  0.14335320  0.39819979  0.85900259    -0.31900
H160        H  0.13596224  0.41050501  0.89403221     0.16600
C161        C  0.08923209  0.33161845  0.72392409    -0.30800
N162        N  0.06442698  0.33221412  0.75237312     0.13400
C163        C  0.06360855  0.35700995  0.78058770    -0.30800
C164        C  0.13033220  0.40988677  0.64209025    -0.31100
N165        N  0.11768750  0.43540680  0.64467717     0.13900
H166        H  0.14199006  0.40222792  0.60630896     0.16500
C167        C  0.10455358  0.43694273  0.69499356    -0.31100
H168        H  0.09200840  0.45436858  0.70916857     0.16500
H169        H  0.04636803  0.36352470  0.80718279     0.16500
H170        H  0.18744853  0.35929916  0.79173175     0.16600
H171        H  0.09565481  0.31469413  0.69678177     0.16500
N172        N  0.03623306  0.25890803  0.74586530    -0.36200
N173        N  0.49349275  0.21496401  0.75296334    -0.56800
N174        N  0.44946930  0.25759922  0.74667198    -0.36200
N175        N  0.49207730  0.30151943  0.75182412    -0.56800
C176        C  0.05156044  0.23629046  0.75979897     0.27400
C177        C  0.05046323  0.28210435  0.76212896     0.27400
C178        C  0.43427828  0.23463047  0.76096833     0.27400
C179        C  0.43359794  0.28035535  0.75832809     0.27400
C180        C  0.01648093  0.19965783  0.73907952     0.36000
C181        C  0.47079212  0.19916670  0.74018482     0.36000
C182        C  0.01495034  0.31739126  0.73952210     0.36000
C183        C  0.46949684  0.31652824  0.73693727     0.36000
C184        C  0.07556649  0.24523647  0.78561614    -0.21500
C185        C  0.07468549  0.27403241  0.78755278    -0.21500
C186        C  0.40858567  0.24295387  0.78247978    -0.21500
C187        C  0.40814450  0.27172993  0.78074169    -0.21500
C188        C  0.00830753  0.17427382  0.71698854    -0.22600
C189        C  0.47952749  0.17419137  0.71699439    -0.22600
C190        C  0.00689275  0.34217631  0.71597838    -0.22600
C191        C  0.47819849  0.34172510  0.71440335    -0.22600
C192        C  0.04469339  0.20787117  0.74848036    -0.17900
C193        C  0.04290854  0.31031349  0.75170189    -0.17900
C194        C  0.44111698  0.30853148  0.74667754    -0.17900
C195        C  0.44231191  0.20642968  0.75136179    -0.17900
H196        H  0.09164206  0.23233954  0.80272228     0.15000
H197        H  0.08968012  0.28754728  0.80705445     0.15000
H198        H  0.39180026  0.22970695  0.79779590     0.15000
H199        H  0.39101001  0.28475688  0.79464779     0.15000
H200        H  0.02168305  0.15783212  0.70122823     0.13300
H201        H  0.46645552  0.15807619  0.69987559     0.13300
H202        H  0.02037663  0.35846904  0.70005483     0.13300
H203        H  0.46528281  0.35796856  0.69780463     0.13300
H204        H  0.01841442  0.25859333  0.72183141     0.26500
H205        H  0.46842947  0.25762177  0.72482333     0.26500
C206        C  0.35440377  0.14597640  0.71216941     0.30400
C207        C  0.38677174  0.11336371  0.77434736     0.30400
C208        C  0.36306020  0.11827382  0.68514465    -0.05800
C209        C  0.38243370  0.15961778  0.72989064    -0.06600
C210        C  0.34152947  0.13775681  0.76963174    -0.06500
C211        C  0.37975954  0.10184376  0.71651730    -0.05800
C212        C  0.39904938  0.14295391  0.76217862    -0.06600
C213        C  0.35808678  0.12101887  0.80153613    -0.06500
C214        C  0.38615756  0.07837354  0.68493783    -0.31900
N215        N  0.37324529  0.07995916  0.63515583     0.14600
C216        C  0.35898761  0.10445535  0.63509792    -0.31900
H217        H  0.34634440  0.11161669  0.60139188     0.16600
C218        C  0.42209821  0.15920304  0.77660051    -0.30800
N219        N  0.42076815  0.18457297  0.75159069     0.13400
C220        C  0.39608411  0.18524546  0.72455405    -0.30800
C221        C  0.34392757  0.11737914  0.85226208    -0.31100
N222        N  0.31893983  0.13090879  0.85152448     0.13900
H223        H  0.35126061  0.10549912  0.88704705     0.16500
C224        C  0.31796158  0.14427043  0.80197130    -0.31100
H225        H  0.30126979  0.15806133  0.79075486     0.16500
H226        H  0.38875177  0.20309830  0.70198355     0.16500
H227        H  0.39908534  0.06121473  0.69759150     0.16600
H228        H  0.43880394  0.15305204  0.80332410     0.16500
N229        N  0.24218620  0.38300726  0.08464424    -0.36200
N230        N  0.28596368  0.38591012  0.99693778    -0.56800
N231        N  0.24226244  0.38303759  0.91186674    -0.36200
N232        N  0.19854750  0.38617165  0.99991674    -0.56800
C233        C  0.26519512  0.38951274  0.11460605     0.27400
C234        C  0.21916498  0.38962623  0.11603438     0.27400
C235        C  0.26547932  0.38935690  0.88048617     0.27400
C236        C  0.21929577  0.38964330  0.88209922     0.27400
C237        C  0.30149038  0.37935856  0.04175364     0.36000
C238        C  0.30157268  0.37944349  0.95079875     0.36000
C239        C  0.18273452  0.37988446  0.04579561     0.36000
C240        C  0.18264943  0.38040175  0.95505211     0.36000
C241        C  0.25658799  0.40074130  0.16519225    -0.21500
C242        C  0.22775743  0.40081468  0.16608909    -0.21500
C243        C  0.25704251  0.40039973  0.83070590    -0.21500
C244        C  0.22817117  0.40045333  0.83145392    -0.21500
C245        C  0.32676253  0.36833517  0.02371571    -0.22600
C246        C  0.32673131  0.36837641  0.96654103    -0.22600
C247        C  0.15697508  0.36974871  0.02972349    -0.22600
C248        C  0.15688737  0.37018226  0.97262836    -0.22600
C249        C  0.29365961  0.38426905  0.09864130    -0.17900
C250        C  0.19065679  0.38449920  0.10198049    -0.17900
C251        C  0.19057774  0.38520094  0.89847106    -0.17900
C252        C  0.29401499  0.38443208  0.89462078    -0.17900
H253        H  0.26967859  0.40833993  0.19811965     0.15000
H254        H  0.21465433  0.40848172  0.19985214     0.15000
H255        H  0.27035169  0.40837416  0.79784536     0.15000
H256        H  0.21523878  0.40811238  0.79865850     0.15000
H257        H  0.34335039  0.36047478  0.04892354     0.13300
H258        H  0.34300995  0.36032271  0.93953670     0.13300
H259        H  0.14001996  0.36236965  0.05618233     0.13300
H260        H  0.13987618  0.36322508  0.94707687     0.13300
H261        H  0.24214908  0.37205427  0.04722420     0.26500
H262        H  0.24208573  0.37242969  0.94942660     0.26500
N263        N  0.24484373  0.13424425  0.08352806    -0.36200
N264        N  0.28837632  0.12837113  0.99604061    -0.56800
N265        N  0.24557879  0.13397139  0.91138807    -0.36200
N266        N  0.20177280  0.13376380  0.99941676    -0.56800
C267        C  0.26684644  0.12492910  0.11257317     0.27400
C268        C  0.22148835  0.12960027  0.11497965     0.27400
C269        C  0.26849921  0.12661485  0.88040314     0.27400
C270        C  0.22249310  0.12770264  0.88152016     0.27400
C271        C  0.30373885  0.13415053  0.04144543     0.36000
C272        C  0.30454763  0.13520188  0.95111325     0.36000
C273        C  0.18639850  0.14174446  0.04499512     0.36000
C274        C  0.18646613  0.13963366  0.95397689     0.36000
C275        C  0.25726340  0.11379798  0.16243336    -0.21500
C276        C  0.22868183  0.11679107  0.16392557    -0.21500
C277        C  0.25978977  0.11526783  0.83069167    -0.21500
C278        C  0.23094441  0.11606431  0.83118791    -0.21500
C279        C  0.32929024  0.14518984  0.02519933    -0.22600
C280        C  0.32999582  0.14560010  0.96812120    -0.22600
C281        C  0.16140165  0.15289117  0.02820613    -0.22600
C282        C  0.16157934  0.15171157  0.97093994    -0.22600
C283        C  0.29541000  0.12850907  0.09725337    -0.17900
C284        C  0.19403104  0.13767848  0.10155511    -0.17900
C285        C  0.19412343  0.13334107  0.89749995    -0.17900
C286        C  0.29703207  0.13102255  0.89496311    -0.17900
H287        H  0.26956472  0.10457207  0.19460807     0.15000
H288        H  0.21474920  0.10995546  0.19697641     0.15000
H289        H  0.27286981  0.10663488  0.79800567     0.15000
H290        H  0.21772801  0.10854069  0.79839827     0.15000
H291        H  0.34524593  0.15318126  0.05186926     0.13300
H292        H  0.34702321  0.15335762  0.94225429     0.13300
H293        H  0.14490973  0.16139781  0.05438900     0.13300
H294        H  0.14564466  0.15974672  0.94457964     0.13300
H295        H  0.24598931  0.14591918  0.04722953     0.26500
H296        H  0.24581442  0.14510590  0.94858354     0.26500
C297        C  0.38636440  0.39937169  0.77805420     0.30400
C298        C  0.35308682  0.36864310  0.71220798     0.30400
C299        C  0.35669878  0.39290343  0.80321584    -0.05800
C300        C  0.37933452  0.41298365  0.72119068    -0.06600
C301        C  0.39763673  0.37049018  0.76144747    -0.06500
C302        C  0.34009480  0.37627887  0.77034078    -0.05800
C303        C  0.36271256  0.39670548  0.68797766    -0.06600
C304        C  0.38063754  0.35428091  0.72864429    -0.06500
C305        C  0.31561040  0.37068613  0.80125185    -0.31900
N306        N  0.31602167  0.38467817  0.85075652     0.14600
C307        C  0.34112366  0.39844105  0.85191379    -0.31900
H308        H  0.34776919  0.41139690  0.88614997     0.16600
C309        C  0.35869540  0.41068976  0.63861324    -0.30800
N310        N  0.37234883  0.43557393  0.63994738     0.13400
C311        C  0.38445233  0.43745523  0.69091472    -0.30800
C312        C  0.39434216  0.32887251  0.72133883    -0.31100
N313        N  0.41954919  0.32995923  0.74684543     0.13900
H314        H  0.38671396  0.31102378  0.69839909     0.16500
C315        C  0.42141789  0.35537642  0.77186048    -0.31100
H316        H  0.43885124  0.36240889  0.79625645     0.16500
H317        H  0.39627631  0.45536611  0.70486772     0.16500
H318        H  0.29860550  0.35732825  0.78847732     0.16600
H319        H  0.34638205  0.40328967  0.60430565     0.16500
C320        C  0.38591019  0.11607912  0.20919581     0.30400
C321        C  0.35093396  0.14619822  0.27451639     0.30400
C322        C  0.37761780  0.10207682  0.26543640    -0.05800
C323        C  0.39696227  0.14494119  0.22658761    -0.06600
C324        C  0.35686292  0.12170123  0.18461089    -0.06500
C325        C  0.36054513  0.11808682  0.30014558    -0.05800
C326        C  0.37945184  0.16021400  0.26078187    -0.06600
C327        C  0.33939278  0.13721420  0.21810815    -0.06500
C328        C  0.35864785  0.10390460  0.35044322    -0.31900
N329        N  0.37170826  0.07878206  0.34589754     0.14600
C330        C  0.38314466  0.07747993  0.29366244    -0.31900
H331        H  0.39523793  0.06010190  0.27779457     0.16600
C332        C  0.39431560  0.18399958  0.27623790    -0.30800
N333        N  0.42011341  0.18376062  0.25093415     0.13400
C334        C  0.42177097  0.15980411  0.22048786    -0.30800
C335        C  0.31463969  0.14073758  0.19038537    -0.31100
N336        N  0.31638983  0.12767012  0.14027638     0.13900
H337        H  0.29685020  0.15262853  0.20519677     0.16500
C338        C  0.34186230  0.11521509  0.13712018    -0.31100
H339        H  0.34895691  0.10259402  0.10234735     0.16500
H340        H  0.43986220  0.15344478  0.19608629     0.16500
H341        H  0.34857961  0.11139656  0.38814592     0.16600
H342        H  0.38688488  0.20025213  0.30404697     0.16500
C343        C  0.13600480  0.14973846  0.72133711     0.30400
C344        C  0.10167926  0.11928267  0.78846655     0.30400
C345        C  0.14820412  0.14171039  0.77790507    -0.05800
C346        C  0.10745722  0.16361894  0.73652079    -0.06600
C347        C  0.12595025  0.12145548  0.69644715    -0.06500
C348        C  0.13120050  0.12576391  0.81191042    -0.05800
C349        C  0.09039222  0.14806106  0.77168996    -0.06600
C350        C  0.10929497  0.10525249  0.73128190    -0.06500
C351        C  0.14703460  0.11969026  0.85863532    -0.31900
N352        N  0.17242301  0.13278879  0.85508724     0.14600
C353        C  0.17330026  0.14603383  0.80514959    -0.31900
H354        H  0.19086670  0.15821030  0.78969143     0.16600
C355        C  0.06561001  0.16258325  0.77965394    -0.30800
N356        N  0.06663850  0.18665006  0.74984558     0.13400
C357        C  0.09203919  0.18722418  0.72271217    -0.30800
C358        C  0.10395757  0.08046977  0.70197894    -0.31100
N359        N  0.11559758  0.08182614  0.64963445     0.13900
H360        H  0.09212298  0.06278433  0.71755712     0.16500
C361        C  0.12853863  0.10715819  0.64606459    -0.31100
H362        H  0.13975111  0.11448159  0.60950420     0.16500
H363        H  0.09880637  0.20355131  0.69458415     0.16500
H364        H  0.14057102  0.10666021  0.89310231     0.16600
H365        H  0.04793898  0.15588326  0.80501936     0.16500
C366        C  0.13354563  0.36508073  0.28323099     0.30400
C367        C  0.10112925  0.40024149  0.22607216     0.30400
C368        C  0.14607279  0.37484381  0.22659731    -0.05800
C369        C  0.10423704  0.35415680  0.26931753    -0.06600
C370        C  0.12808409  0.39400431  0.31218810    -0.06500
C371        C  0.12903047  0.39171665  0.19574616    -0.05800
C372        C  0.08780946  0.37141874  0.23903941    -0.06600
C373        C  0.11115657  0.41137083  0.28224569    -0.06500
C374        C  0.14323967  0.39599278  0.14517861    -0.31900
N375        N  0.16909110  0.38415976  0.14627520     0.14600
C376        C  0.17100030  0.37160286  0.19660626    -0.31900
H377        H  0.18895380  0.36003006  0.20991926     0.16600
C378        C  0.06362639  0.35612559  0.22750031    -0.30800
N379        N  0.06487273  0.33042988  0.25192343     0.13400
C380        C  0.08973009  0.32937474  0.27780069    -0.30800
C381        C  0.10868550  0.43657298  0.31016628    -0.31100
N382        N  0.12365693  0.43580394  0.35720086     0.13900
H383        H  0.09642249  0.45418603  0.29733406     0.16500
C384        C  0.13606059  0.41000667  0.35838908    -0.31100
H385        H  0.14971187  0.40321405  0.39078708     0.16500
H386        H  0.09695245  0.31169354  0.30109847     0.16500
H387        H  0.13544320  0.40731748  0.11012256     0.16600
H388        H  0.04639373  0.36326335  0.20311440     0.16500
O389        O  0.02105808  0.05161538  0.07398023    -0.79800
O390        O  0.47540134  0.02978117  0.87089084    -0.79800
O391        O  0.05134211  0.02484255  0.95360394    -0.79800
O392        O  0.43612460  0.01936705  0.05082048    -0.79700
O393        O  0.01361712  0.05009497  0.94175694    -0.79800
O394        O  0.46947454  0.04901598  0.05735727    -0.79800
O395        O  0.45071039  0.03374232  0.94884320    -0.79800
O396        O  0.05484189  0.02186259  0.06443242    -0.78800
C397        C  0.04592911  0.04559278  0.07962661     1.09900
C398        C  0.45488710  0.03978673  0.89755022     1.09800
C399        C  0.03952047  0.04633873  0.93444612     1.10000
C400        C  0.44487824  0.04284694  0.06692268     1.09800
O401        O  0.46593973  0.49389527  0.11458355    -0.79800
O402        O  0.02011342  0.49767594  0.89070487    -0.79800
O403        O  0.02740417  0.46726768  0.06138886    -0.79800
O404        O  0.42800751  0.48320725  0.96442411    -0.79700
O405        O  0.46861416  0.47994549  0.91908327    -0.79800
O406        O  0.02099150  0.49748226  0.12887619    -0.79800
O407        O  0.46426991  0.46630966  0.04174826    -0.79700
O408        O  0.02813559  0.46746788  0.95408320    -0.79800
Co409      Co  0.49429036  0.02300248  0.09040586     1.51500
Co410      Co  0.49057413  0.01648015  0.93627808     1.51700
Co411      Co  0.03858349  0.99533182  0.00835103     1.51600
Co412      Co  0.46025405  0.99882466  0.99497858     1.51500
O413        O  0.49949032  0.00840499  0.01396312    -1.41700
C414        C  0.45902702  0.47086793  0.09236293     1.09900
C415        C  0.03092589  0.47521886  0.90522808     1.10000
C416        C  0.02943610  0.47389713  0.11117467     1.09900
C417        C  0.44271824  0.47292775  0.92519533     1.09900
O418        O  0.28924592  0.22458164  0.44697480    -0.79800
O419        O  0.25625875  0.31589917  0.56103270    -0.79800
O420        O  0.26461533  0.28107794  0.39444238    -0.79800
O421        O  0.26284361  0.23411303  0.62665158    -0.79700
O422        O  0.26363705  0.31503985  0.45407856    -0.79800
O423        O  0.29106624  0.22745920  0.55639059    -0.79800
O424        O  0.27759656  0.27982148  0.58719394    -0.79800
O425        O  0.25645173  0.22796236  0.38603967    -0.79800
C426        C  0.28054080  0.21989581  0.39945669     1.09900
C427        C  0.27640914  0.30531441  0.58476531     1.09800
C428        C  0.27285802  0.30476928  0.41002898     1.10000
C429        C  0.28564477  0.22441396  0.60709453     1.09800
O430        O  0.23694430  0.20150602  0.56593348    -0.79800
O431        O  0.20893366  0.29455128  0.43449007    -0.79800
O432        O  0.20556344  0.23246803  0.45700771    -0.79800
O433        O  0.22288581  0.28293321  0.63093054    -0.79700
O434        O  0.20297175  0.28804824  0.55002603    -0.79800
O435        O  0.23420843  0.19819899  0.45525641    -0.79800
O436        O  0.20886626  0.23657099  0.57237826    -0.79700
O437        O  0.21321099  0.26363308  0.36648558    -0.79800
Co438      Co  0.26271433  0.21551144  0.50550700     1.51500
Co439      Co  0.23464628  0.29855625  0.50022070     1.51700
Co440      Co  0.23509387  0.25733785  0.42867220     1.51600
Co441      Co  0.24244378  0.26028646  0.57700132     1.51500
O442        O  0.25278413  0.25695582  0.49971687    -1.41700
C443        C  0.21392536  0.21153535  0.58238758     1.09900
C444        C  0.20090126  0.28435120  0.38808702     1.10000
C445        C  0.21005728  0.20729796  0.44613456     1.09900
C446        C  0.20353919  0.29302877  0.60176940     1.09900
C447        C  0.05469558  0.42599979  0.22131554    -0.01500
C448        C  0.08226839  0.42120503  0.20022072     0.08200
C449        C  0.09321170  0.43964742  0.16042354    -0.01600
C450        C  0.07504040  0.45310647  0.12615203    -0.01600
C451        C  0.04704960  0.45645129  0.14388386     0.08300
C452        C  0.03713665  0.44407175  0.19296387    -0.01800
Br453      Br  0.99940303  0.45067469  0.21908838    -0.00300
Br454      Br  0.04175654  0.41187680  0.29233399    -0.00400
Br455      Br  0.09015110  0.46786508  0.05729124    -0.00400
Br456      Br  0.12922719  0.45741204  0.17039853    -0.00300
C457        C  0.17698350  0.29949084  0.30236362    -0.01500
C458        C  0.17836519  0.29882055  0.36054623     0.08200
C459        C  0.15950653  0.31500344  0.39296595    -0.01600
C460        C  0.14434540  0.33609712  0.36789038    -0.01600
C461        C  0.14887375  0.34163681  0.31084249     0.08300
C462        C  0.16020635  0.31941244  0.27785427    -0.01800
Br463      Br  0.14850022  0.31129952  0.20259421    -0.00300
Br464      Br  0.19751703  0.27388405  0.25461583    -0.00400
Br465      Br  0.11360501  0.35230386  0.40982953    -0.00400
Br466      Br  0.15296269  0.30773684  0.47128152    -0.00300
C467        C  0.16375811  0.19404315  0.70000095    -0.01500
C468        C  0.15735105  0.16591835  0.68717739     0.08200
C469        C  0.17695951  0.15151248  0.65303420    -0.01600
C470        C  0.19270723  0.16629243  0.61368458    -0.01600
C471        C  0.19533796  0.19538638  0.61955268     0.08300
C472        C  0.18446630  0.20786582  0.66857171    -0.01800
Br473      Br  0.20417262  0.23823104  0.70340691    -0.00300
Br474      Br  0.14948807  0.21221609  0.76671969    -0.00400
Br475      Br  0.21290290  0.14552277  0.55756610    -0.00400
Br476      Br  0.19107707  0.11529575  0.67390136    -0.00300
C477        C  0.07459653  0.08394808  0.91788707    -0.01500
C478        C  0.05513869  0.06497171  0.89670207     0.08200
C479        C  0.04832385  0.06636122  0.83977677    -0.01600
C480        C  0.06001716  0.08718680  0.80614023    -0.01600
C481        C  0.08158881  0.10391738  0.82685062     0.08300
C482        C  0.08447435  0.10557684  0.88462726    -0.01800
Br483      Br  0.09173805  0.14095758  0.91986739    -0.00300
Br484      Br  0.09297995  0.07774137  0.98641212    -0.00400
Br485      Br  0.04189298  0.09654549  0.73766855    -0.00400
Br486      Br  0.02716967  0.03795454  0.80280304    -0.00300
C487        C  0.41356151  0.08201578  0.08025274    -0.01500
C488        C  0.42986968  0.06126510  0.10377155     0.08200
C489        C  0.43960018  0.06476768  0.15874412    -0.01600
C490        C  0.42783556  0.08529032  0.19274417    -0.01600
C491        C  0.40609630  0.10117237  0.17170904     0.08300
C492        C  0.40438777  0.10381847  0.11389631    -0.01800
Br493      Br  0.39875230  0.13995069  0.08160063    -0.00300
Br494      Br  0.40616574  0.08237463  0.00196191    -0.00400
Br495      Br  0.44526383  0.09528823  0.26203530    -0.00400
Br496      Br  0.46990357  0.04334381  0.18789923    -0.00300
C497        C  0.30663929  0.20934625  0.31301724    -0.01500
C498        C  0.29642412  0.20094143  0.36492508     0.08200
C499        C  0.30127908  0.17381178  0.38420309    -0.01600
C500        C  0.31383266  0.15468721  0.34875399    -0.01600
C501        C  0.33011971  0.16464973  0.30390636     0.08300
C502        C  0.32440299  0.19169139  0.28286737    -0.01800
Br503      Br  0.33806541  0.20454191  0.21108098    -0.00300
Br504      Br  0.29812833  0.24566170  0.28558988    -0.00400
Br505      Br  0.29621620  0.11832612  0.34607005    -0.00400
Br506      Br  0.29260995  0.16210057  0.45913382    -0.00300
C507        C  0.30552491  0.36055968  0.67444110    -0.01500
C508        C  0.33409161  0.35406524  0.67267730     0.08200
C509        C  0.34412805  0.33749159  0.62792006    -0.01600
C510        C  0.32517134  0.32068570  0.59926630    -0.01600
C511        C  0.29654439  0.32232827  0.61313822     0.08300
C512        C  0.28683990  0.34212832  0.65151404    -0.01800
Br513      Br  0.24921426  0.34212541  0.68031101    -0.00300
Br514      Br  0.29212302  0.39759024  0.69169466    -0.00400
Br515      Br  0.33826561  0.29670998  0.53996904    -0.00400
Br516      Br  0.38120953  0.34281383  0.59630726    -0.00300
C517        C  0.42637311  0.43293319  0.79488154    -0.01500
C518        C  0.40605694  0.41446916  0.81586422     0.08200
C519        C  0.40571473  0.40910007  0.87323619    -0.01600
C520        C  0.41589962  0.42933744  0.90940146    -0.01600
C521        C  0.43086571  0.45229216  0.88758894     0.08300
C522        C  0.43693703  0.45351911  0.82984370    -0.01800
Br523      Br  0.45872093  0.48300629  0.79603340    -0.00300
Br524      Br  0.44624700  0.42440958  0.72616010    -0.00400
Br525      Br  0.40885741  0.42499796  0.98788226    -0.00400
Br526      Br  0.39782379  0.37216111  0.90125470    -0.00300
C527        C  0.43333705  0.09562584  0.80406466    -0.01500
C528        C  0.40412733  0.09304380  0.80533538     0.08200
C529        C  0.39201403  0.06879019  0.82932235    -0.01600
C530        C  0.40841324  0.05173054  0.86210924    -0.01600
C531        C  0.43660303  0.05885831  0.87020776     0.08300
C532        C  0.44861145  0.08169442  0.84288730    -0.01800
Br533      Br  0.48552796  0.09496132  0.85858314    -0.00300
Br534      Br  0.45321851  0.10495769  0.73632797    -0.00400
Br535      Br  0.39207284  0.01843446  0.89328147    -0.00400
Br536      Br  0.35500103  0.05562020  0.81032806    -0.00300
C537        C  0.33208378  0.20321553  0.61864854    -0.01500
C538        C  0.30378571  0.20578953  0.63715178     0.08200
C539        C  0.29149223  0.18414326  0.66891347    -0.01600
C540        C  0.30730715  0.16098891  0.68122510    -0.01600
C541        C  0.33630515  0.16263564  0.67538546     0.08300
C542        C  0.34787516  0.18073202  0.63584198    -0.01800
Br543      Br  0.38266639  0.17165236  0.59755582    -0.00300
Br544      Br  0.35028673  0.22949643  0.56956059    -0.00400
Br545      Br  0.28922112  0.12505746  0.68947185    -0.00400
Br546      Br  0.25347675  0.18419769  0.69557995    -0.00300
C547        C  0.09468999  0.44715760  0.83345309    -0.01500
C548        C  0.08287861  0.42271306  0.81042367     0.08200
C549        C  0.05384620  0.42222234  0.80247952    -0.01600
C550        C  0.03691085  0.43760351  0.83776525    -0.01600
C551        C  0.04860375  0.45944576  0.86801727     0.08300
C552        C  0.07745756  0.46534789  0.86330984    -0.01800
Br553      Br  0.09469877  0.49708364  0.89782346    -0.00300
Br554      Br  0.13277559  0.45909480  0.81657471    -0.00400
Br555      Br  0.99862087  0.42659350  0.84657975    -0.00400
Br556      Br  0.03801202  0.41194915  0.73216619    -0.00300
C557        C  0.17460336  0.35903059  0.65539016    -0.01500
C558        C  0.15361890  0.34871934  0.69150628     0.08200
C559        C  0.15206575  0.31983650  0.70162291    -0.01600
C560        C  0.16377730  0.30168536  0.66348284    -0.01600
C561        C  0.18334123  0.31184370  0.62527623     0.08300
C562        C  0.18767203  0.34065592  0.61869574    -0.01800
Br563      Br  0.20940499  0.35561677  0.55756452    -0.00300
Br564      Br  0.19207332  0.39502300  0.66773936    -0.00400
Br565      Br  0.14611968  0.26612054  0.65263518    -0.00400
Br566      Br  0.14289356  0.30483441  0.77387725    -0.00300
C567        C  0.31597681  0.32626434  0.28694620    -0.01500
C568        C  0.33490870  0.34496339  0.31098897     0.08200
C569        C  0.33684709  0.34568972  0.36900463    -0.01600
C570        C  0.31440474  0.33638964  0.40141361    -0.01600
C571        C  0.29329823  0.32026006  0.37651255     0.08300
C572        C  0.29350410  0.31664227  0.31865333    -0.01800
Br573      Br  0.26016995  0.30635905  0.28060428    -0.00300
Br574      Br  0.32383384  0.30853504  0.21604187    -0.00400
Br575      Br  0.31069822  0.35205275  0.47488240    -0.00400
Br576      Br  0.37236008  0.35099656  0.40404911    -0.00300
C577        C  0.42248102  0.40462173  0.13447963    -0.01500
C578        C  0.40163651  0.41510946  0.17075657     0.08200
C579        C  0.39568898  0.44372560  0.16912595    -0.01600
C580        C  0.41587037  0.46212084  0.14860797    -0.01600
C581        C  0.44034196  0.45165614  0.12215524     0.08300
C582        C  0.44324203  0.42266528  0.11410164    -0.01800
Br583      Br  0.47546505  0.40719063  0.07602228    -0.00300
Br584      Br  0.41692409  0.36941923  0.09655070    -0.00400
Br585      Br  0.40816631  0.00117076  0.15760222    -0.00400
Br586      Br  0.35856561  0.45767004  0.18675835    -0.00300
C587        C  0.18184293  0.15302354  0.34566380    -0.01500
C588        C  0.15828552  0.16719429  0.32538937     0.08200
C589        C  0.15392229  0.19477438  0.34259631    -0.01600
C590        C  0.16637373  0.20470710  0.39062425    -0.01600
C591        C  0.19003153  0.19111716  0.41173111     0.08300
C592        C  0.19741552  0.16475517  0.38878564    -0.01800
Br593      Br  0.22766297  0.14283032  0.41620563    -0.00300
Br594      Br  0.19485770  0.11836524  0.31204779    -0.00400
Br595      Br  0.14863161  0.23608490  0.42659291    -0.00400
Br596      Br  0.14519482  0.22253953  0.28836440    -0.00300
C597        C  0.08240300  0.05486808  0.14795670    -0.01500
C598        C  0.06313700  0.06512041  0.11031348     0.08200
C599        C  0.06016289  0.09425726  0.10343998    -0.01600
C600        C  0.07602328  0.11248964  0.13580251    -0.01600
C601        C  0.09178619  0.10154310  0.17959495     0.08300
C602        C  0.09919342  0.07320311  0.17633861    -0.01800
Br603      Br  0.13564296  0.05969387  0.19613317    -0.00300
Br604      Br  0.08305600  0.01682421  0.17144390    -0.00400
Br605      Br  0.08168008  0.15021022  0.10919192    -0.00400
Br606      Br  0.03497669  0.10979194  0.04991021    -0.00300
C607        C  0.10615642  0.61991806  0.22089774     0.30400
C608        C  0.13786026  0.65195226  0.28814173     0.30400
C609        C  0.13413483  0.62946601  0.19612762    -0.05800
C610        C  0.09217778  0.64747015  0.24044092    -0.06600
C611        C  0.11315678  0.60641560  0.27772311    -0.06500
C612        C  0.15045475  0.64584423  0.22919187    -0.05800
C613        C  0.10817842  0.66410063  0.27550159    -0.06600
C614        C  0.12931211  0.62279499  0.31174510    -0.06500
C615        C  0.17454502  0.65178964  0.19720763    -0.31900
N616        N  0.17277169  0.63914497  0.14608599     0.14600
C617        C  0.14794386  0.62549041  0.14567079    -0.31900
H618        H  0.14062867  0.61290602  0.11140947     0.16600
C619        C  0.09072570  0.68621102  0.29156963    -0.30800
N620        N  0.06595120  0.68453641  0.26461485     0.13400
C621        C  0.06635253  0.66021486  0.23524729    -0.30800
C622        C  0.13238787  0.60807107  0.36122927    -0.31100
N623        N  0.11894169  0.58288724  0.35832963     0.13900
H624        H  0.14390421  0.61521852  0.39680566     0.16500
C625        C  0.10651401  0.58215063  0.30770861    -0.31100
H626        H  0.09346784  0.56515117  0.29353592     0.16500
H627        H  0.04915783  0.65252485  0.21099322     0.16500
H628        H  0.19223890  0.66401888  0.21067897     0.16600
H629        H  0.09523289  0.70224890  0.32174957     0.16500
N630        N  0.49300507  0.71347310  0.25620362    -0.36200
N631        N  0.03611294  0.75717016  0.26079238    -0.56800
N632        N  0.49266945  0.79991179  0.24915369    -0.36200
N633        N  0.44937145  0.75655543  0.25627044    -0.56800
C634        C  0.01553493  0.69811407  0.27050229     0.27400
C635        C  0.46965052  0.69787252  0.26637035     0.27400
C636        C  0.01526109  0.81548952  0.26293707     0.27400
C637        C  0.46959810  0.81509061  0.26226659     0.27400
C638        C  0.05214804  0.73421243  0.25131499     0.36000
C639        C  0.05175503  0.77979637  0.24558530     0.36000
C640        C  0.43411368  0.73354980  0.24324024     0.36000
C641        C  0.43399899  0.77899360  0.24173120     0.36000
C642        C  0.00627463  0.67250866  0.29025184    -0.21500
C643        C  0.47746922  0.67235858  0.28762336    -0.21500
C644        C  0.00638906  0.84047820  0.28601385    -0.21500
C645        C  0.47763881  0.84032023  0.28538449    -0.21500
C646        C  0.07784828  0.74236547  0.22951404    -0.22600
C647        C  0.07756370  0.77102721  0.22579448    -0.22600
C648        C  0.40926672  0.74149062  0.21998268    -0.22600
C649        C  0.40912102  0.77014843  0.21913023    -0.22600
C650        C  0.04421334  0.70599217  0.26300083    -0.17900
C651        C  0.44165517  0.70545045  0.25394366    -0.17900
C652        C  0.44162452  0.80735982  0.25083533    -0.17900
C653        C  0.04360698  0.80829623  0.25241616    -0.17900
H654        H  0.01892512  0.65558734  0.30495522     0.15000
H655        H  0.46383679  0.65535131  0.30007078     0.15000
H656        H  0.01927987  0.85692220  0.30254337     0.15000
H657        H  0.46421452  0.85683524  0.30067931     0.15000
H658        H  0.09479716  0.72901753  0.21606181     0.13300
H659        H  0.09429802  0.78387130  0.20930127     0.13300
H660        H  0.39319188  0.72802607  0.20394107     0.13300
H661        H  0.39275082  0.78291530  0.20266474     0.13300
H662        H  0.49363284  0.73236805  0.23526667     0.26500
H663        H  0.49309963  0.78132122  0.22660118     0.26500
C664        C  0.35178626  0.86461292  0.27527987     0.30400
C665        C  0.38489186  0.89656437  0.20920441     0.30400
C666        C  0.33867642  0.87372497  0.21955085    -0.05800
C667        C  0.36026855  0.89330653  0.30098028    -0.06600
C668        C  0.37985299  0.85161724  0.25802522    -0.06500
C669        C  0.35603656  0.88924088  0.18544717    -0.05800
C670        C  0.37801689  0.90922469  0.26779555    -0.06600
C671        C  0.39724720  0.86795750  0.22535524    -0.06500
C672        C  0.34146626  0.89502785  0.13744304    -0.31900
N673        N  0.31521199  0.88388430  0.14138554     0.14600
C674        C  0.31322389  0.87151863  0.19229784    -0.31900
H675        H  0.29461979  0.86114456  0.20808402     0.16600
C676        C  0.38477756  0.93307243  0.29850635    -0.30800
N677        N  0.37069508  0.93282107  0.34835601     0.13400
C678        C  0.35532952  0.90874521  0.34963268    -0.30800
C679        C  0.42261967  0.85393080  0.22172994    -0.31100
N680        N  0.42031940  0.82894163  0.24829197     0.13900
H681        H  0.44157023  0.86142095  0.20157346     0.16500
C682        C  0.39421900  0.82769694  0.27140949    -0.31100
H683        H  0.38641112  0.81088144  0.29730050     0.16500
H684        H  0.34146416  0.90291994  0.38366309     0.16500
H685        H  0.34943959  0.90688326  0.10240289     0.16600
H686        H  0.39879741  0.94962293  0.28521443     0.16500
N687        N  0.11883325  0.50914874  0.41596413    -0.36200
N688        N  0.12191856  0.96551635  0.50162774    -0.56800
N689        N  0.11501825  0.50874196  0.58877865    -0.36200
N690        N  0.11785776  0.55259911  0.50332524    -0.56800
C691        C  0.12689723  0.98642691  0.38525914     0.27400
C692        C  0.12452425  0.53254407  0.38560994     0.27400
C693        C  0.12215774  0.98581867  0.61841714     0.27400
C694        C  0.12071358  0.53178650  0.62010985     0.27400
C695        C  0.11682281  0.94980411  0.45585635     0.36000
C696        C  0.11431079  0.94966641  0.54602796     0.36000
C697        C  0.11266357  0.56851932  0.45797554     0.36000
C698        C  0.11117005  0.56817488  0.54921362     0.36000
C699        C  0.13794720  0.99559262  0.33496984    -0.21500
C700        C  0.13662418  0.52443780  0.33542581    -0.21500
C701        C  0.13279496  0.99449763  0.66869540    -0.21500
C702        C  0.13188268  0.52328528  0.66981903    -0.21500
C703        C  0.10550775  0.92433807  0.47134194    -0.22600
C704        C  0.10399874  0.92417770  0.52830299    -0.22600
C705        C  0.10236542  0.59411227  0.47536702    -0.22600
C706        C  0.10137552  0.59387901  0.53261210    -0.22600
C707        C  0.12316322  0.95762961  0.40027040    -0.17900
C708        C  0.11835161  0.56091869  0.40117306    -0.17900
C709        C  0.11531549  0.56019795  0.60582339    -0.17900
C710        C  0.11804788  0.95727708  0.60237333    -0.17900
H711        H  0.14637986  0.98284520  0.30152041     0.15000
H712        H  0.14435623  0.53795415  0.30293630     0.15000
H713        H  0.14085848  0.98147023  0.70100415     0.15000
H714        H  0.13912947  0.53639982  0.70329950     0.15000
H715        H  0.09829444  0.90788535  0.44437085     0.13300
H716        H  0.09576441  0.90735640  0.55363301     0.13300
H717        H  0.09592162  0.61120140  0.44958816     0.13300
H718        H  0.09399327  0.61075677  0.55888767     0.13300
H719        H  0.10766452  0.50856953  0.45342179     0.26500
H720        H  0.10442755  0.50851955  0.55148948     0.26500
N721        N  0.37435145  0.50609029  0.40554571    -0.36200
N722        N  0.37122432  0.96326519  0.49341296    -0.56800
N723        N  0.37480014  0.50726069  0.57774789    -0.36200
N724        N  0.37261137  0.55002535  0.49060552    -0.56800
C725        C  0.36675868  0.98292139  0.37643870     0.27400
C726        C  0.36761300  0.52883432  0.37501174     0.27400
C727        C  0.36781875  0.98477653  0.60935936     0.27400
C728        C  0.36775603  0.53042804  0.60740152     0.27400
C729        C  0.37658181  0.94706287  0.44785919     0.36000
C730        C  0.37729031  0.94781175  0.53887475     0.36000
C731        C  0.37856728  0.56557691  0.44482845     0.36000
C732        C  0.37851562  0.56615153  0.53549063     0.36000
C733        C  0.35478162  0.99110050  0.32743509    -0.21500
C734        C  0.35535906  0.51989456  0.32637538    -0.21500
C735        C  0.35593431  0.99380163  0.65911454    -0.21500
C736        C  0.35582715  0.52250740  0.65779377    -0.21500
C737        C  0.38639700  0.92145376  0.46456398    -0.22600
C738        C  0.38681095  0.92186180  0.52183364    -0.22600
C739        C  0.38870052  0.59147092  0.46090935    -0.22600
C740        C  0.38856585  0.59186027  0.51811293    -0.22600
C741        C  0.37150083  0.95458841  0.39158530    -0.17900
C742        C  0.37307960  0.55737154  0.38905217    -0.17900
C743        C  0.37335422  0.55852648  0.59184828    -0.17900
C744        C  0.37296174  0.95638459  0.59547518    -0.17900
H745        H  0.34592027  0.97767537  0.29623939     0.15000
H746        H  0.34721163  0.53272311  0.29375835     0.15000
H747        H  0.34784775  0.98107581  0.69278366     0.15000
H748        H  0.34765044  0.53600425  0.69022634     0.15000
H749        H  0.39318439  0.90446770  0.43812906     0.13300
H750        H  0.39373414  0.90505054  0.54780173     0.13300
H751        H  0.39555976  0.60838717  0.43432128     0.13300
H752        H  0.39522083  0.60910744  0.54388614     0.13300
H753        H  0.38589566  0.50627758  0.44166913     0.26500
H754        H  0.38634110  0.50688270  0.54067002     0.26500
C755        C  0.10092304  0.90162082  0.78200473     0.30400
C756        C  0.13402602  0.86793145  0.72104269     0.30400
C757        C  0.12891584  0.89363349  0.80970243    -0.05800
C758        C  0.08797990  0.87239121  0.76903922    -0.06600
C759        C  0.10970993  0.91288671  0.72467017    -0.06500
C760        C  0.14580691  0.87679719  0.77741009    -0.05800
C761        C  0.10464476  0.85565003  0.73563030    -0.06600
C762        C  0.12629718  0.89582548  0.69245761    -0.06500
C763        C  0.17010993  0.87192916  0.80619992    -0.31900
N764        N  0.16881640  0.88529570  0.85618114     0.14600
C765        C  0.14335297  0.89819958  0.85900294    -0.31900
H766        H  0.13596210  0.91050489  0.89403259     0.16600
C767        C  0.08923146  0.83161829  0.72392488    -0.30800
N768        N  0.06442641  0.83221402  0.75237400     0.13400
C769        C  0.06360804  0.85700978  0.78058873    -0.30800
C770        C  0.13033154  0.90988642  0.64209095    -0.31100
N771        N  0.11768699  0.93540651  0.64467792     0.13900
H772        H  0.14198942  0.90222755  0.60630964     0.16500
C773        C  0.10455312  0.93694251  0.69499439    -0.31100
H774        H  0.09200813  0.95436844  0.70916954     0.16500
H775        H  0.04636754  0.86352448  0.80718394     0.16500
H776        H  0.18744795  0.85929865  0.79173201     0.16600
H777        H  0.09565409  0.81469395  0.69678235     0.16500
N778        N  0.03623265  0.75890806  0.74586537    -0.36200
N779        N  0.49349273  0.71496403  0.75296330    -0.56800
N780        N  0.44946943  0.75759931  0.74667199    -0.36200
N781        N  0.49207764  0.80151946  0.75182219    -0.56800
C782        C  0.05156010  0.73629049  0.75979865     0.27400
C783        C  0.05046268  0.78210433  0.76212969     0.27400
C784        C  0.43427838  0.73463069  0.76096873     0.27400
C785        C  0.43359825  0.78035557  0.75832771     0.27400
C786        C  0.01648071  0.69965794  0.73907867     0.36000
C787        C  0.47079201  0.69916670  0.74018540     0.36000
C788        C  0.01494982  0.81739128  0.73952329     0.36000
C789        C  0.46949714  0.81652835  0.73693580     0.36000
C790        C  0.07556607  0.74523645  0.78561619    -0.21500
C791        C  0.07468494  0.77403238  0.78755349    -0.21500
C792        C  0.40858586  0.74295431  0.78248026    -0.21500
C793        C  0.40814484  0.77173035  0.78074169    -0.21500
C794        C  0.00830733  0.67427409  0.71698694    -0.22600
C795        C  0.47952726  0.67419122  0.71699550    -0.22600
C796        C  0.00689224  0.84217641  0.71597993    -0.22600
C797        C  0.47819880  0.84172517  0.71440170    -0.22600
C798        C  0.04469312  0.70787125  0.74847966    -0.17900
C799        C  0.04290798  0.81031343  0.75170282    -0.17900
C800        C  0.44111728  0.80853165  0.74667648    -0.17900
C801        C  0.44231184  0.70642981  0.75136265    -0.17900
H802        H  0.09164158  0.73233952  0.80272219     0.15000
H803        H  0.08967950  0.78754723  0.80705556     0.15000
H804        H  0.39180046  0.72970754  0.79779688     0.15000
H805        H  0.39101045  0.78475749  0.79464783     0.15000
H806        H  0.02168284  0.65783249  0.70122624     0.13300
H807        H  0.46645518  0.65807598  0.69987703     0.13300
H808        H  0.02037608  0.85846914  0.70005640     0.13300
H809        H  0.46528308  0.85796863  0.69780305     0.13300
H810        H  0.01841408  0.75859342  0.72183126     0.26500
H811        H  0.46842959  0.75762169  0.72482313     0.26500
C812        C  0.35440345  0.64597670  0.71217122     0.30400
C813        C  0.38677137  0.61336386  0.77434900     0.30400
C814        C  0.36305988  0.61827412  0.68514631    -0.05800
C815        C  0.38243336  0.65961806  0.72989267    -0.06600
C816        C  0.34152910  0.63775693  0.76963341    -0.06500
C817        C  0.37975918  0.60184401  0.71651891    -0.05800
C818        C  0.39904905  0.64295413  0.76218048    -0.06600
C819        C  0.35808636  0.62101889  0.80153772    -0.06500
C820        C  0.38615727  0.57837386  0.68493932    -0.31900
N821        N  0.37324510  0.57995952  0.63515725     0.14600
C822        C  0.35898734  0.60445568  0.63509948    -0.31900
H823        H  0.34634416  0.61161701  0.60139361     0.16600
C824        C  0.42209800  0.65920323  0.77660209    -0.30800
N825        N  0.42076796  0.68457318  0.75159224     0.13400
C826        C  0.39608386  0.68524568  0.72455576    -0.30800
C827        C  0.34392704  0.61737897  0.85226351    -0.31100
N828        N  0.31893936  0.63090872  0.85152590     0.13900
H829        H  0.35125994  0.60549885  0.88704838     0.16500
C830        C  0.31796122  0.64427056  0.80197297    -0.31100
H831        H  0.30126958  0.65806162  0.79075678     0.16500
H832        H  0.38875158  0.70309844  0.70198484     0.16500
H833        H  0.39908509  0.56121499  0.69759306     0.16600
H834        H  0.43880387  0.65305215  0.80332532     0.16500
N835        N  0.24218586  0.88300710  0.08464407    -0.36200
N836        N  0.28596350  0.88590977  0.99693761    -0.56800
N837        N  0.24226228  0.88303719  0.91186679    -0.36200
N838        N  0.19854730  0.88617156  0.99991683    -0.56800
C839        C  0.26519488  0.88951252  0.11460581     0.27400
C840        C  0.21916473  0.88962629  0.11603445     0.27400
C841        C  0.26547915  0.88935650  0.88048596     0.27400
C842        C  0.21929558  0.88964292  0.88209916     0.27400
C843        C  0.30149014  0.87935811  0.04175344     0.36000
C844        C  0.30157255  0.87944323  0.95079859     0.36000
C845        C  0.18273420  0.87988473  0.04579575     0.36000
C846        C  0.18264922  0.88040164  0.95505224     0.36000
C847        C  0.25658791  0.90074112  0.16519204    -0.21500
C848        C  0.22775735  0.90081470  0.16608911    -0.21500
C849        C  0.25704230  0.90039929  0.83070568    -0.21500
C850        C  0.22817096  0.90045291  0.83145381    -0.21500
C851        C  0.32676229  0.86833464  0.02371556    -0.22600
C852        C  0.32673113  0.86837603  0.96654087    -0.22600
C853        C  0.15697470  0.86974911  0.02972370    -0.22600
C854        C  0.15688711  0.87018233  0.97262858    -0.22600
C855        C  0.29365932  0.88426870  0.09864097    -0.17900
C856        C  0.19065646  0.88449953  0.10198061    -0.17900
C857        C  0.19057753  0.88520060  0.89847114    -0.17900
C858        C  0.29401486  0.88443179  0.89462059    -0.17900
H859        H  0.26967867  0.90833970  0.19811940     0.15000
H860        H  0.21465443  0.90848188  0.19985212     0.15000
H861        H  0.27035144  0.90837366  0.79784495     0.15000
H862        H  0.21523854  0.90811187  0.79865845     0.15000
H863        H  0.34335014  0.86047413  0.04892333     0.13300
H864        H  0.34300978  0.86032236  0.93953650     0.13300
H865        H  0.14001950  0.86237025  0.05618258     0.13300
H866        H  0.13987592  0.86322502  0.94707704     0.13300
H867        H  0.24214862  0.87205412  0.04722413     0.26500
H868        H  0.24208558  0.87242939  0.94942662     0.26500
N869        N  0.24484326  0.63424427  0.08352894    -0.36200
N870        N  0.28837582  0.62837113  0.99604180    -0.56800
N871        N  0.24557825  0.63397123  0.91138915    -0.36200
N872        N  0.20177225  0.63376360  0.99941689    -0.56800
C873        C  0.26684595  0.62492934  0.11257414     0.27400
C874        C  0.22148788  0.62960047  0.11498018     0.27400
C875        C  0.26849875  0.62661456  0.88040429     0.27400
C876        C  0.22249263  0.62770228  0.88152080     0.27400
C877        C  0.30373838  0.63415059  0.04144653     0.36000
C878        C  0.30454709  0.63520187  0.95111441     0.36000
C879        C  0.18639807  0.64174448  0.04499517     0.36000
C880        C  0.18646551  0.63963332  0.95397701     0.36000
C881        C  0.25726285  0.61379840  0.16243441    -0.21500
C882        C  0.22868128  0.61679147  0.16392642    -0.21500
C883        C  0.25978946  0.61526743  0.83069280    -0.21500
C884        C  0.23094409  0.61606390  0.83118872    -0.21500
C885        C  0.32928976  0.64518993  0.02520034    -0.22600
C886        C  0.32999528  0.64560013  0.96812220    -0.22600
C887        C  0.16140122  0.65289122  0.02820614    -0.22600
C888        C  0.16157878  0.65171138  0.97093998    -0.22600
C889        C  0.29540952  0.62850929  0.09725449    -0.17900
C890        C  0.19403059  0.63767857  0.10155520    -0.17900
C891        C  0.19412291  0.63334070  0.89750015    -0.17900
C892        C  0.29703155  0.63102240  0.89496439    -0.17900
H893        H  0.26956418  0.60457259  0.19460927     0.15000
H894        H  0.21474864  0.60995587  0.19697714     0.15000
H895        H  0.27286952  0.60663452  0.79800710     0.15000
H896        H  0.21772781  0.60854033  0.79839901     0.15000
H897        H  0.34524541  0.65318130  0.05187002     0.13300
H898        H  0.34702266  0.65335760  0.94225514     0.13300
H899        H  0.14490939  0.66139803  0.05438905     0.13300
H900        H  0.14564408  0.65974657  0.94457960     0.13300
H901        H  0.24598883  0.64591908  0.04723007     0.26500
H902        H  0.24581382  0.64510583  0.94858433     0.26500
C903        C  0.38636429  0.89937155  0.77805372     0.30400
C904        C  0.35308671  0.86864288  0.71220780     0.30400
C905        C  0.35669877  0.89290308  0.80321569    -0.05800
C906        C  0.37933422  0.91298351  0.72119033    -0.06600
C907        C  0.39763677  0.87049016  0.76144671    -0.06500
C908        C  0.34009479  0.87627850  0.77034072    -0.05800
C909        C  0.36271231  0.89670528  0.68797738    -0.06600
C910        C  0.38063754  0.85428079  0.72864379    -0.06500
C911        C  0.31561038  0.87068579  0.80125176    -0.31900
N912        N  0.31602157  0.88467791  0.85075635     0.14600
C913        C  0.34112363  0.89844071  0.85191362    -0.31900
H914        H  0.34776920  0.91139661  0.88614984     0.16600
C915        C  0.35869512  0.91068949  0.63861286    -0.30800
N916        N  0.37234846  0.93557370  0.63994696     0.13400
C917        C  0.38445193  0.93745510  0.69091432    -0.30800
C918        C  0.39434232  0.82887251  0.72133816    -0.31100
N919        N  0.41954945  0.82995939  0.74684437     0.13900
H920        H  0.38671411  0.81102368  0.69839848     0.16500
C921        C  0.42141811  0.85537661  0.77185929    -0.31100
H922        H  0.43885150  0.86240922  0.79625501     0.16500
H923        H  0.39627585  0.95536597  0.70486724     0.16500
H924        H  0.29860545  0.85732788  0.78847717     0.16600
H925        H  0.34638186  0.90328938  0.60430536     0.16500
C926        C  0.38590979  0.61607920  0.20919649     0.30400
C927        C  0.35093382  0.64619859  0.27451720     0.30400
C928        C  0.37761746  0.60207706  0.26543725    -0.05800
C929        C  0.39696203  0.64494127  0.22658803    -0.06600
C930        C  0.35686250  0.62170140  0.18461179    -0.06500
C931        C  0.36054497  0.61808722  0.30014649    -0.05800
C932        C  0.37945174  0.66021423  0.26078235    -0.06600
C933        C  0.33939247  0.63721450  0.21810908    -0.06500
C934        C  0.35864778  0.60390515  0.35044431    -0.31900
N935        N  0.37170815  0.57878260  0.34589876     0.14600
C936        C  0.38314432  0.57748024  0.29366350    -0.31900
H937        H  0.39523745  0.56010214  0.27779570     0.16600
C938        C  0.39431574  0.68399962  0.27623854    -0.30800
N939        N  0.42011353  0.68376048  0.25093467     0.13400
C940        C  0.42177085  0.65980398  0.22048827    -0.30800
C941        C  0.31463936  0.64073793  0.19038634    -0.31100
N942        N  0.31638937  0.62767034  0.14027748     0.13900
H943        H  0.29684985  0.65262902  0.20519767     0.16500
C944        C  0.34186179  0.61521525  0.13712126    -0.31100
H945        H  0.34895637  0.60259402  0.10234825     0.16500
H946        H  0.43986201  0.65344450  0.19608663     0.16500
H947        H  0.34857961  0.61139726  0.38814713     0.16600
H948        H  0.38688519  0.70025218  0.30404773     0.16500
C949        C  0.13600452  0.64973854  0.72133686     0.30400
C950        C  0.10167883  0.61928277  0.78846588     0.30400
C951        C  0.14820379  0.64171032  0.77790482    -0.05800
C952        C  0.10745696  0.66361909  0.73652051    -0.06600
C953        C  0.12594990  0.62145563  0.69644662    -0.06500
C954        C  0.13120010  0.62576382  0.81190992    -0.05800
C955        C  0.09039190  0.64806121  0.77168954    -0.06600
C956        C  0.10929446  0.60525266  0.73128114    -0.06500
C957        C  0.14703410  0.61969010  0.85863500    -0.31900
N958        N  0.17242259  0.63278851  0.85508714     0.14600
C959        C  0.17329993  0.64603366  0.80514956    -0.31900
H960        H  0.19086637  0.65821008  0.78969162     0.16600
C961        C  0.06560968  0.66258339  0.77965343    -0.30800
N962        N  0.06663821  0.68665016  0.74984506     0.13400
C963        C  0.09203892  0.68722429  0.72271175    -0.30800
C964        C  0.10395700  0.58047001  0.70197801    -0.31100
N965        N  0.11559717  0.58182639  0.64963368     0.13900
H966        H  0.09212230  0.56278457  0.71755600     0.16500
C967        C  0.12853838  0.60715837  0.64606406    -0.31100
H968        H  0.13975105  0.61448178  0.60950388     0.16500
H969        H  0.09880605  0.70355135  0.69458367     0.16500
H970        H  0.14057041  0.60666015  0.89310183     0.16600
H971        H  0.04793854  0.65588337  0.80501881     0.16500
C972        C  0.13354541  0.86508097  0.28323116     0.30400
C973        C  0.10112905  0.90024186  0.22607281     0.30400
C974        C  0.14607252  0.87484408  0.22659747    -0.05800
C975        C  0.10423678  0.85415712  0.26931784    -0.06600
C976        C  0.12808405  0.89400448  0.31218850    -0.06500
C977        C  0.12903023  0.89171704  0.19574656    -0.05800
C978        C  0.08780917  0.87141912  0.23903993    -0.06600
C979        C  0.11115651  0.91137107  0.28224635    -0.06500
C980        C  0.14323941  0.89599323  0.14517899    -0.31900
N981        N  0.16909081  0.88416009  0.14627535     0.14600
C982        C  0.17100001  0.87160310  0.19660633    -0.31900
H983        H  0.18895344  0.86003028  0.20991919     0.16600
C984        C  0.06362604  0.85612599  0.22750101    -0.30800
N985        N  0.06487240  0.83043028  0.25192412     0.13400
C986        C  0.08972983  0.82937510  0.27780106    -0.30800
C987        C  0.10868553  0.93657315  0.31016713    -0.31100
N988        N  0.12365712  0.93580404  0.35720149     0.13900
H989        H  0.09642251  0.95418617  0.29733522     0.16500
C990        C  0.13606072  0.91000675  0.35838945    -0.31100
H991        H  0.14971213  0.90321402  0.39078744     0.16500
H992        H  0.09695227  0.81169382  0.30109875     0.16500
H993        H  0.13544297  0.90731801  0.11012309     0.16600
H994        H  0.04639326  0.86326377  0.20311517     0.16500
O995        O  0.02105817  0.55161520  0.07397935    -0.79800
O996        O  0.47540158  0.52978113  0.87089111    -0.79800
O997        O  0.05134194  0.52484257  0.95360260    -0.79800
O998        O  0.43612442  0.51936703  0.05082080    -0.79700
O999        O  0.01361690  0.55009491  0.94175601    -0.79800
O1000       O  0.46947414  0.54901621  0.05735736    -0.79800
O1001       O  0.45071033  0.53374214  0.94884322    -0.79800
O1002       O  0.05484204  0.52186256  0.06443109    -0.78800
C1003       C  0.04592922  0.54559271  0.07962549     1.09900
C1004       C  0.45488721  0.53978657  0.89755026     1.09800
C1005       C  0.03952023  0.54633874  0.93444502     1.10000
C1006       C  0.44487790  0.54284698  0.06692298     1.09800
O1007       O  0.46593973  0.99389490  0.11458290    -0.79800
O1008       O  0.02011348  0.99767614  0.89070610    -0.79800
O1009       O  0.02740395  0.96726787  0.06139013    -0.79800
O1010       O  0.42800732  0.98320751  0.96442339    -0.79700
O1011       O  0.46861396  0.97994549  0.91908271    -0.79800
O1012       O  0.02099123  0.99748254  0.12887733    -0.79800
O1013       O  0.46426972  0.96630948  0.04174736    -0.79700
O1014       O  0.02813566  0.96746796  0.95408418    -0.79800
Co1015     Co  0.49429015  0.52300295  0.09040628     1.51500
Co1016     Co  0.49057420  0.51648024  0.93627855     1.51700
Co1017     Co  0.03858352  0.49533177  0.00834979     1.51600
Co1018     Co  0.46025408  0.49882467  0.99497909     1.51500
O1019       O  0.49949026  0.50840530  0.01396364    -1.41700
C1020       C  0.45902683  0.97086767  0.09236204     1.09900
C1021       C  0.03092598  0.97521907  0.90522911     1.10000
C1022       C  0.02943586  0.97389742  0.11117591     1.09900
C1023       C  0.44271797  0.97292797  0.92519453     1.09900
O1024       O  0.28924520  0.72458225  0.44697434    -0.79800
O1025       O  0.25625836  0.81589944  0.56103245    -0.79800
O1026       O  0.26461479  0.78107797  0.39444201    -0.79800
O1027       O  0.26284369  0.73411331  0.62665136    -0.79700
O1028       O  0.26363704  0.81503986  0.45407827    -0.79800
O1029       O  0.29106592  0.72745981  0.55638980    -0.79800
O1030       O  0.27759618  0.77982173  0.58719360    -0.79800
O1031       O  0.25645085  0.72796244  0.38603958    -0.79800
C1032       C  0.28053999  0.71989608  0.39945646     1.09900
C1033       C  0.27640868  0.80531464  0.58476531     1.09800
C1034       C  0.27285793  0.80476913  0.41002871     1.10000
C1035       C  0.28564478  0.72441428  0.60709371     1.09800
O1036       O  0.23694418  0.70150628  0.56593383    -0.79800
O1037       O  0.20893342  0.79455157  0.43448952    -0.79800
O1038       O  0.20556278  0.73246844  0.45700782    -0.79800
O1039       O  0.22288539  0.78293371  0.63092984    -0.79700
O1040       O  0.20297130  0.78804864  0.55002532    -0.79800
O1041       O  0.23420777  0.69819938  0.45525683    -0.79800
O1042       O  0.20886604  0.73657113  0.57237865    -0.79700
O1043       O  0.21321040  0.76363310  0.36648545    -0.79800
Co1044     Co  0.26271388  0.71551188  0.50550689     1.51500
Co1045     Co  0.23464595  0.79855655  0.50022026     1.51700
Co1046     Co  0.23509327  0.75733808  0.42867212     1.51600
Co1047     Co  0.24244354  0.76028663  0.57700133     1.51500
O1048       O  0.25278365  0.75695618  0.49971676    -1.41700
C1049       C  0.21392525  0.71153551  0.58238810     1.09900
C1050       C  0.20090092  0.78435140  0.38808661     1.10000
C1051       C  0.21005661  0.70729833  0.44613490     1.09900
C1052       C  0.20353870  0.79302913  0.60176867     1.09900
C1053       C  0.05469545  0.92600030  0.22131684    -0.01500
C1054       C  0.08226821  0.92120550  0.20022177     0.08200
C1055       C  0.09321150  0.93964793  0.16042464    -0.01600
C1056       C  0.07504020  0.95310701  0.12615325    -0.01600
C1057       C  0.04704941  0.95645173  0.14388512     0.08300
C1058       C  0.03713656  0.94407236  0.19296538    -0.01800
Br1059     Br  0.99940323  0.95067597  0.21909085    -0.00300
Br1060     Br  0.04175636  0.91187724  0.29233522    -0.00400
Br1061     Br  0.09015089  0.96786573  0.05729249    -0.00400
Br1062     Br  0.12922700  0.95741248  0.17039937    -0.00300
C1063       C  0.17698341  0.79949119  0.30236306    -0.01500
C1064       C  0.17836496  0.79882078  0.36054571     0.08200
C1065       C  0.15950617  0.81500341  0.39296550    -0.01600
C1066       C  0.14434506  0.83609715  0.36789018    -0.01600
C1067       C  0.14887349  0.84163702  0.31084238     0.08300
C1068       C  0.16020619  0.81941278  0.27785390    -0.01800
Br1069     Br  0.14850003  0.81129996  0.20259381    -0.00300
Br1070     Br  0.19751704  0.77388451  0.25461505    -0.00400
Br1071     Br  0.11360481  0.85230390  0.40982956    -0.00400
Br1072     Br  0.15296208  0.80773626  0.47128073    -0.00300
C1073       C  0.16375792  0.69404321  0.70000121    -0.01500
C1074       C  0.15735091  0.66591842  0.68717746     0.08200
C1075       C  0.17695964  0.65151252  0.65303481    -0.01600
C1076       C  0.19270758  0.66629248  0.61368550    -0.01600
C1077       C  0.19533802  0.69538649  0.61955339     0.08300
C1078       C  0.18446607  0.70786599  0.66857213    -0.01800
Br1079     Br  0.20417161  0.73823190  0.70340688    -0.00300
Br1080     Br  0.14948766  0.71221613  0.76671973    -0.00400
Br1081     Br  0.21290351  0.64552282  0.55756704    -0.00400
Br1082     Br  0.19107686  0.61529559  0.67390177    -0.00300
C1083       C  0.07459609  0.58394822  0.91788611    -0.01500
C1084       C  0.05513835  0.56497180  0.89670102     0.08200
C1085       C  0.04832341  0.56636141  0.83977579    -0.01600
C1086       C  0.06001664  0.58718708  0.80613941    -0.01600
C1087       C  0.08158833  0.60391756  0.82684981     0.08300
C1088       C  0.08447381  0.60557703  0.88462639    -0.01800
Br1089     Br  0.09173765  0.64095765  0.91986659    -0.00300
Br1090     Br  0.09297936  0.57774161  0.98641129    -0.00400
Br1091     Br  0.04189237  0.59654613  0.73766812    -0.00400
Br1092     Br  0.02716928  0.53795477  0.80280183    -0.00300
C1093       C  0.41356065  0.58201535  0.08025335    -0.01500
C1094       C  0.42986922  0.56126498  0.10377204     0.08200
C1095       C  0.43959982  0.56476772  0.15874449    -0.01600
C1096       C  0.42783515  0.58529032  0.19274456    -0.01600
C1097       C  0.40609578  0.60117228  0.17170958     0.08300
C1098       C  0.40438697  0.60381811  0.11389684    -0.01800
Br1099     Br  0.39875208  0.63995032  0.08160100    -0.00300
Br1100     Br  0.40616409  0.58237363  0.00196276    -0.00400
Br1101     Br  0.44526342  0.59528807  0.26203572    -0.00400
Br1102     Br  0.46990359  0.54334426  0.18789924    -0.00300
C1103       C  0.30663811  0.70934618  0.31301674    -0.01500
C1104       C  0.29642333  0.70094162  0.36492505     0.08200
C1105       C  0.30127888  0.67381223  0.38420386    -0.01600
C1106       C  0.31383270  0.65468766  0.34875513    -0.01600
C1107       C  0.33011966  0.66465017  0.30390736     0.08300
C1108       C  0.32440255  0.69169163  0.28286780    -0.01800
Br1109     Br  0.33806541  0.70454217  0.21108180    -0.00300
Br1110     Br  0.29812546  0.74566087  0.28558738    -0.00400
Br1111     Br  0.29621620  0.61832657  0.34607129    -0.00400
Br1112     Br  0.29260955  0.66210122  0.45913466    -0.00300
C1113       C  0.30552474  0.86055985  0.67444095    -0.01500
C1114       C  0.33409137  0.85406510  0.67267739     0.08200
C1115       C  0.34412771  0.83749120  0.62792057    -0.01600
C1116       C  0.32517098  0.82068509  0.59926751    -0.01600
C1117       C  0.29654395  0.82232833  0.61313849     0.08300
C1118       C  0.28683956  0.84212874  0.65151368    -0.01800
Br1119     Br  0.24921388  0.84212627  0.68031057    -0.00300
Br1120     Br  0.29212324  0.89759049  0.69169467    -0.00400
Br1121     Br  0.33826556  0.79670794  0.53997280    -0.00400
Br1122     Br  0.38120895  0.84281364  0.59630684    -0.00300
C1123       C  0.42637277  0.93293330  0.79488080    -0.01500
C1124       C  0.40605684  0.91446905  0.81586358     0.08200
C1125       C  0.40571475  0.90910002  0.87323554    -0.01600
C1126       C  0.41589946  0.92933753  0.90940070    -0.01600
C1127       C  0.43086534  0.95229237  0.88758812     0.08300
C1128       C  0.43693658  0.95351929  0.82984290    -0.01800
Br1129     Br  0.45872033  0.98300654  0.79603257    -0.00300
Br1130     Br  0.44624662  0.92441000  0.72615924    -0.00400
Br1131     Br  0.40885722  0.92499819  0.98788145    -0.00400
Br1132     Br  0.39782401  0.87216111  0.90125429    -0.00300
C1133       C  0.43333672  0.59562583  0.80406519    -0.01500
C1134       C  0.40412700  0.59304385  0.80533669     0.08200
C1135       C  0.39201389  0.56879002  0.82932319    -0.01600
C1136       C  0.40841336  0.55173005  0.86210893    -0.01600
C1137       C  0.43660310  0.55885803  0.87020757     0.08300
C1138       C  0.44861139  0.58169431  0.84288728    -0.01800
Br1139     Br  0.48552816  0.59496112  0.85858190    -0.00300
Br1140     Br  0.45321769  0.60495772  0.73632798    -0.00400
Br1141     Br  0.39207352  0.51843304  0.89327857    -0.00400
Br1142     Br  0.35500081  0.55562005  0.81032968    -0.00300
C1143       C  0.33208371  0.70321448  0.61864551    -0.01500
C1144       C  0.30378591  0.70578967  0.63715035     0.08200
C1145       C  0.29149245  0.68414441  0.66891481    -0.01600
C1146       C  0.30730701  0.66099001  0.68122753    -0.01600
C1147       C  0.33630499  0.66263612  0.67538723     0.08300
C1148       C  0.34787505  0.68073140  0.63584165    -0.01800
Br1149     Br  0.38266679  0.67165114  0.59755787    -0.00300
Br1150     Br  0.35028638  0.72949249  0.56955065    -0.00400
Br1151     Br  0.28922028  0.62505894  0.68947432    -0.00400
Br1152     Br  0.25347736  0.68420002  0.69558367    -0.00300
C1153       C  0.09468979  0.94715777  0.83345305    -0.01500
C1154       C  0.08287837  0.92271292  0.81042488     0.08200
C1155       C  0.05384593  0.92222194  0.80248163    -0.01600
C1156       C  0.03691073  0.93760312  0.83776760    -0.01600
C1157       C  0.04860364  0.95944599  0.86801786     0.08300
C1158       C  0.07745732  0.96534857  0.86330856    -0.01800
Br1159     Br  0.09469805  0.99708617  0.89781642    -0.00300
Br1160     Br  0.13277560  0.95909443  0.81657511    -0.00400
Br1161     Br  0.99862084  0.92659292  0.84658309    -0.00400
Br1162     Br  0.03801157  0.91194919  0.73216826    -0.00300
C1163       C  0.17460272  0.85903057  0.65539059    -0.01500
C1164       C  0.15361825  0.84871914  0.69150642     0.08200
C1165       C  0.15206491  0.81983622  0.70162189    -0.01600
C1166       C  0.16377638  0.80168536  0.66348122    -0.01600
C1167       C  0.18334058  0.81184391  0.62527545     0.08300
C1168       C  0.18767143  0.84065613  0.61869580    -0.01800
Br1169     Br  0.20940460  0.85561724  0.55756529    -0.00300
Br1170     Br  0.19207271  0.89502286  0.66774062    -0.00400
Br1171     Br  0.14611889  0.76612055  0.65263267    -0.00400
Br1172     Br  0.14289296  0.80483359  0.77387567    -0.00300
C1173       C  0.31597672  0.82626374  0.28694545    -0.01500
C1174       C  0.33490887  0.84496258  0.31098797     0.08200
C1175       C  0.33684769  0.84568857  0.36900359    -0.01600
C1176       C  0.31440547  0.83638847  0.40141303    -0.01600
C1177       C  0.29329840  0.82025955  0.37651216     0.08300
C1178       C  0.29350396  0.81664194  0.31865287    -0.01800
Br1179     Br  0.26016938  0.80635971  0.28060429    -0.00300
Br1180     Br  0.32383344  0.80853443  0.21604104    -0.00400
Br1181     Br  0.31070009  0.85205050  0.47488282    -0.00400
Br1182     Br  0.37236093  0.85099554  0.40404704    -0.00300
C1183       C  0.42248053  0.90462160  0.13447821    -0.01500
C1184       C  0.40163617  0.91510929  0.17075554     0.08200
C1185       C  0.39568871  0.94372546  0.16912518    -0.01600
C1186       C  0.41587007  0.96212073  0.14860704    -0.01600
C1187       C  0.44034159  0.95165597  0.12215410     0.08300
C1188       C  0.44324155  0.92266513  0.11410027    -0.01800
Br1189     Br  0.47546446  0.90719045  0.07602062    -0.00300
Br1190     Br  0.41692349  0.86941924  0.09654904    -0.00400
Br1191     Br  0.40816652  0.50117081  0.15760306    -0.00400
Br1192     Br  0.35856541  0.95766986  0.18675753    -0.00300
C1193       C  0.18184255  0.65302379  0.34566382    -0.01500
C1194       C  0.15828512  0.66719448  0.32538923     0.08200
C1195       C  0.15392177  0.69477453  0.34259620    -0.01600
C1196       C  0.16637310  0.70470728  0.39062422    -0.01600
C1197       C  0.19003085  0.69111740  0.41173149     0.08300
C1198       C  0.19741493  0.66475540  0.38878607    -0.01800
Br1199     Br  0.22766234  0.64283058  0.41620644    -0.00300
Br1200     Br  0.19485771  0.61836570  0.31204740    -0.00400
Br1201     Br  0.14863079  0.73608495  0.42659254    -0.00400
Br1202     Br  0.14519483  0.72253975  0.28836398    -0.00300
C1203       C  0.08240325  0.55486815  0.14795540    -0.01500
C1204       C  0.06313706  0.56512039  0.11031243     0.08200
C1205       C  0.06016253  0.59425725  0.10343969    -0.01600
C1206       C  0.07602269  0.61248968  0.13580252    -0.01600
C1207       C  0.09178573  0.60154319  0.17959480     0.08300
C1208       C  0.09919338  0.57320329  0.17633790    -0.01800
Br1209     Br  0.13564316  0.55969451  0.19613272    -0.00300
Br1210     Br  0.08305710  0.51682403  0.17144100    -0.00400
Br1211     Br  0.08167928  0.65021026  0.10919194    -0.00400
Br1212     Br  0.03497606  0.60979197  0.04991057    -0.00300
C1213       C  0.60615623  0.11991890  0.22089838     0.30400
C1214       C  0.63785998  0.15195299  0.28814270     0.30400
C1215       C  0.63413458  0.12946716  0.19612829    -0.05800
C1216       C  0.59217744  0.14747082  0.24044198    -0.06600
C1217       C  0.61315671  0.10641626  0.27772358    -0.06500
C1218       C  0.65045446  0.14584526  0.22919276    -0.05800
C1219       C  0.60817805  0.16410129  0.27550279    -0.06600
C1220       C  0.62931203  0.12279559  0.31174564    -0.06500
C1221       C  0.67454472  0.15179089  0.19720866    -0.31900
N1222       N  0.67277140  0.13914655  0.14608670     0.14600
C1223       C  0.64794359  0.12549191  0.14567133    -0.31900
H1224       H  0.64062843  0.11290762  0.11140986     0.16600
C1225       C  0.59072526  0.18621158  0.29157103    -0.30800
N1226       N  0.56595071  0.18453685  0.26461646     0.13400
C1227       C  0.56635208  0.16021537  0.23524874    -0.30800
C1228       C  0.63238791  0.10807156  0.36122965    -0.31100
N1229       N  0.61894185  0.08288768  0.35832981     0.13900
H1230       H  0.64390421  0.11521896  0.39680605     0.16500
C1231       C  0.60651403  0.08215118  0.30770893    -0.31100
H1232       H  0.59346784  0.06515170  0.29353615     0.16500
H1233       H  0.54915736  0.15252534  0.21099477     0.16500
H1234       H  0.69223866  0.16402011  0.21068038     0.16600
H1235       H  0.59523236  0.20224945  0.32175103     0.16500
N1236       N  0.99300553  0.21347266  0.25620278    -0.36200
N1237       N  0.53611244  0.25717045  0.26079246    -0.56800
N1238       N  0.99267008  0.29991146  0.24915322    -0.36200
N1239       N  0.94937202  0.25655520  0.25627007    -0.56800
C1240       C  0.51553450  0.19811446  0.27050358     0.27400
C1241       C  0.96965095  0.19787217  0.26636960     0.27400
C1242       C  0.51526066  0.31548973  0.26293671     0.27400
C1243       C  0.96959875  0.31509038  0.26226617     0.27400
C1244       C  0.55214754  0.23421272  0.25131538     0.36000
C1245       C  0.55175451  0.27979660  0.24558495     0.36000
C1246       C  0.93411412  0.23354961  0.24324021     0.36000
C1247       C  0.93399962  0.27899338  0.24173073     0.36000
C1248       C  0.50627419  0.17250918  0.29025386    -0.21500
C1249       C  0.97746967  0.17235811  0.28762205    -0.21500
C1250       C  0.50638862  0.34047834  0.28601375    -0.21500
C1251       C  0.97763944  0.34032000  0.28538406    -0.21500
C1252       C  0.57784775  0.24236569  0.22951404    -0.22600
C1253       C  0.57756312  0.27102742  0.22579401    -0.22600
C1254       C  0.90926716  0.24149045  0.21998268    -0.22600
C1255       C  0.90912160  0.27014825  0.21912985    -0.22600
C1256       C  0.54421288  0.20599256  0.26300206    -0.17900
C1257       C  0.94165554  0.20545023  0.25394357    -0.17900
C1258       C  0.94162516  0.30735959  0.25083493    -0.17900
C1259       C  0.54360653  0.30829646  0.25241579    -0.17900
H1260       H  0.51892468  0.15558802  0.30495772     0.15000
H1261       H  0.96383724  0.15535086  0.30006960     0.15000
H1262       H  0.51927941  0.35692236  0.30254336     0.15000
H1263       H  0.96421514  0.35683498  0.30067889     0.15000
H1264       H  0.59479665  0.22901777  0.21606206     0.13300
H1265       H  0.59429733  0.28387147  0.20930056     0.13300
H1266       H  0.89319222  0.22802589  0.20394120     0.13300
H1267       H  0.89275147  0.28291510  0.20266427     0.13300
H1268       H  0.99363329  0.23236777  0.23526629     0.26500
H1269       H  0.99310025  0.28132093  0.22660081     0.26500
C1270       C  0.85178665  0.36461222  0.27528019     0.30400
C1271       C  0.88489197  0.39656397  0.20920479     0.30400
C1272       C  0.83867664  0.37372436  0.21955140    -0.05800
C1273       C  0.86026887  0.39330582  0.30098086    -0.06600
C1274       C  0.87985342  0.35161671  0.25802527    -0.06500
C1275       C  0.85603663  0.38924039  0.18544766    -0.05800
C1276       C  0.87801705  0.40922414  0.26779609    -0.06600
C1277       C  0.89724753  0.36795714  0.22535545    -0.06500
C1278       C  0.84146617  0.39502720  0.13744357    -0.31900
N1279       N  0.81521195  0.38388349  0.14138629     0.14600
C1280       C  0.81322405  0.37151790  0.19229868    -0.31900
H1281       H  0.79462004  0.36114371  0.20808507     0.16600
C1282       C  0.88477776  0.43307182  0.29850704    -0.30800
N1283       N  0.87069542  0.43282034  0.34835686     0.13400
C1284       C  0.85532994  0.40874440  0.34963346    -0.30800
C1285       C  0.92262011  0.35393065  0.22173026    -0.31100
N1286       N  0.92032000  0.32894138  0.24829201     0.13900
H1287       H  0.94157066  0.36142096  0.20157378     0.16500
C1288       C  0.89421959  0.32769648  0.27140944    -0.31100
H1289       H  0.88641180  0.31088083  0.29730033     0.16500
H1290       H  0.84146470  0.40291900  0.38366396     0.16500
H1291       H  0.84943936  0.40688261  0.10240332     0.16600
H1292       H  0.89879747  0.44962237  0.28521508     0.16500
N1293       N  0.61883386  0.00914906  0.41596378    -0.36200
N1294       N  0.62191895  0.46551675  0.50162774    -0.56800
N1295       N  0.61501865  0.00874237  0.58877859    -0.36200
N1296       N  0.61785819  0.05259953  0.50332534    -0.56800
C1297       C  0.62689743  0.48642731  0.38525891     0.27400
C1298       C  0.62452466  0.03254445  0.38560979     0.27400
C1299       C  0.62215811  0.48581906  0.61841722     0.27400
C1300       C  0.62071412  0.03178686  0.62010987     0.27400
C1301       C  0.61682321  0.44980451  0.45585634     0.36000
C1302       C  0.61431103  0.44966686  0.54602797     0.36000
C1303       C  0.61266394  0.06851970  0.45797561     0.36000
C1304       C  0.61117065  0.06817537  0.54921375     0.36000
C1305       C  0.63794716  0.49559308  0.33496941    -0.21500
C1306       C  0.63662438  0.02443822  0.33542540    -0.21500
C1307       C  0.63279541  0.49449794  0.66869547    -0.21500
C1308       C  0.63188310  0.02328551  0.66981909    -0.21500
C1309       C  0.60550806  0.42433851  0.47134195    -0.22600
C1310       C  0.60399896  0.42417816  0.52830297    -0.22600
C1311       C  0.60236584  0.09411268  0.47536707    -0.22600
C1312       C  0.60137613  0.09387952  0.53261216    -0.22600
C1313       C  0.62316349  0.45762997  0.40027026    -0.17900
C1314       C  0.61835195  0.06091907  0.40117311    -0.17900
C1315       C  0.61531605  0.06019838  0.60582358    -0.17900
C1316       C  0.61804810  0.45727750  0.60237337    -0.17900
H1317       H  0.64637972  0.48284574  0.30151980     0.15000
H1318       H  0.64435624  0.03795459  0.30293580     0.15000
H1319       H  0.64085884  0.48147051  0.70100411     0.15000
H1320       H  0.63912991  0.03639995  0.70329967     0.15000
H1321       H  0.59829468  0.40788587  0.44437086     0.13300
H1322       H  0.59576450  0.40735683  0.55363296     0.13300
H1323       H  0.59592193  0.11120178  0.44958813     0.13300
H1324       H  0.59399390  0.11075735  0.55888760     0.13300
H1325       H  0.60766530  0.00856982  0.45342175     0.26500
H1326       H  0.60442796  0.00852001  0.55148942     0.26500
N1327       N  0.87435110  0.00608984  0.40554626    -0.36200
N1328       N  0.87122448  0.46326458  0.49341383    -0.56800
N1329       N  0.87479910  0.00726012  0.57774819    -0.36200
N1330       N  0.87261015  0.05002496  0.49060544    -0.56800
C1331       C  0.86675887  0.48292073  0.37643934     0.27400
C1332       C  0.86761257  0.02883378  0.37501180     0.27400
C1333       C  0.86781851  0.48477582  0.60936013     0.27400
C1334       C  0.86775482  0.03042747  0.60740159     0.27400
C1335       C  0.87658199  0.44706223  0.44786010     0.36000
C1336       C  0.87729026  0.44781109  0.53887570     0.36000
C1337       C  0.87856616  0.06557655  0.44482849     0.36000
C1338       C  0.87851421  0.06615112  0.53549061     0.36000
C1339       C  0.85478182  0.49109965  0.32743560    -0.21500
C1340       C  0.85535900  0.01989386  0.32637521    -0.21500
C1341       C  0.85593406  0.49380094  0.65911529    -0.21500
C1342       C  0.85582602  0.02250687  0.65779396    -0.21500
C1343       C  0.88639696  0.42145305  0.46456503    -0.22600
C1344       C  0.88681077  0.42186108  0.52183471    -0.22600
C1345       C  0.88869922  0.09147062  0.46090948    -0.22600
C1346       C  0.88856433  0.09185994  0.51811304    -0.22600
C1347       C  0.87150114  0.45458774  0.39158612    -0.17900
C1348       C  0.87307878  0.05737109  0.38905219    -0.17900
C1349       C  0.87335285  0.05852595  0.59184820    -0.17900
C1350       C  0.87296162  0.45638391  0.59547615    -0.17900
H1351       H  0.84592053  0.47767437  0.29624003     0.15000
H1352       H  0.84721159  0.03272224  0.29375810     0.15000
H1353       H  0.84784764  0.48107517  0.69278465     0.15000
H1354       H  0.84764924  0.03600372  0.69022637     0.15000
H1355       H  0.89318424  0.40446694  0.43813028     0.13300
H1356       H  0.89373371  0.40504984  0.54780274     0.13300
H1357       H  0.89555855  0.10838692  0.43432147     0.13300
H1358       H  0.89521925  0.10910718  0.54388642     0.13300
H1359       H  0.88589497  0.00627726  0.44166995     0.26500
H1360       H  0.88634005  0.00688216  0.54067034     0.26500
C1361       C  0.60092332  0.40162117  0.78200482     0.30400
C1362       C  0.63402624  0.36793184  0.72104272     0.30400
C1363       C  0.62891610  0.39363390  0.80970238    -0.05800
C1364       C  0.58798027  0.37239154  0.76903963    -0.06600
C1365       C  0.60971008  0.41288708  0.72467017    -0.06500
C1366       C  0.64580720  0.37679763  0.77741005    -0.05800
C1367       C  0.60464505  0.35565032  0.73563067    -0.06600
C1368       C  0.62629728  0.39582583  0.69245756    -0.06500
C1369       C  0.67011016  0.37192960  0.80620004    -0.31900
N1370       N  0.66881649  0.38529607  0.85618130     0.14600
C1371       C  0.64335308  0.39819992  0.85900302    -0.31900
H1372       H  0.63596207  0.41050516  0.89403276     0.16600
C1373       C  0.58923171  0.33161850  0.72392582    -0.30800
N1374       N  0.56442686  0.33221426  0.75237558     0.13400
C1375       C  0.56360856  0.35701010  0.78058999    -0.30800
C1376       C  0.63033169  0.40988681  0.64209094    -0.31100
N1377       N  0.61768716  0.43540692  0.64467794     0.13900
H1378       H  0.64198963  0.40222797  0.60630969     0.16500
C1379       C  0.60455330  0.43694290  0.69499442    -0.31100
H1380       H  0.59200834  0.45436885  0.70916963     0.16500
H1381       H  0.54636825  0.36352486  0.80718551     0.16500
H1382       H  0.68744826  0.35929909  0.79173228     0.16600
H1383       H  0.59565414  0.31469410  0.69678327     0.16500
N1384       N  0.53623283  0.25890837  0.74586820    -0.36200
N1385       N  0.99349273  0.21496337  0.75296171    -0.56800
N1386       N  0.94946927  0.25759840  0.74667112    -0.36200
N1387       N  0.99207738  0.30151891  0.75182204    -0.56800
C1388       C  0.55156021  0.23629077  0.75980181     0.27400
C1389       C  0.55046297  0.28210464  0.76213231     0.27400
C1390       C  0.93427825  0.23462962  0.76096749     0.27400
C1391       C  0.93359794  0.28035458  0.75832729     0.27400
C1392       C  0.51648085  0.19965852  0.73908042     0.36000
C1393       C  0.97079209  0.19916569  0.74018453     0.36000
C1394       C  0.51495036  0.31739161  0.73952425     0.36000
C1395       C  0.96949673  0.31652776  0.73693632     0.36000
C1396       C  0.57556618  0.24523669  0.78561944    -0.21500
C1397       C  0.57468518  0.27403265  0.78755635    -0.21500
C1398       C  0.90858568  0.24295306  0.78247900    -0.21500
C1399       C  0.90814452  0.27172910  0.78074094    -0.21500
C1400       C  0.50830742  0.17427491  0.71698776    -0.22600
C1401       C  0.97952758  0.17419005  0.71699564    -0.22600
C1402       C  0.50689304  0.34217655  0.71597962    -0.22600
C1403       C  0.97819819  0.34172478  0.71440276    -0.22600
C1404       C  0.54469322  0.20787163  0.74848211    -0.17900
C1405       C  0.54290839  0.31031374  0.75170477    -0.17900
C1406       C  0.94111692  0.30853085  0.74667715    -0.17900
C1407       C  0.94231183  0.20642873  0.75136129    -0.17900
H1408       H  0.59164174  0.23233971  0.80272532     0.15000
H1409       H  0.58967991  0.28754747  0.80705788     0.15000
H1410       H  0.89180026  0.22970613  0.79779554     0.15000
H1411       H  0.89101009  0.28475605  0.79464741     0.15000
H1412       H  0.52168291  0.15783328  0.70122672     0.13300
H1413       H  0.96645570  0.15807441  0.69987791     0.13300
H1414       H  0.52037704  0.35846909  0.70005578     0.13300
H1415       H  0.96528232  0.35796841  0.69780474     0.13300
H1416       H  0.51841439  0.25859374  0.72183384     0.26500
H1417       H  0.96842947  0.25762098  0.72482256     0.26500
C1418       C  0.85440259  0.14597615  0.71217163     0.30400
C1419       C  0.88677063  0.11336308  0.77434854     0.30400
C1420       C  0.86305872  0.11827352  0.68514640    -0.05800
C1421       C  0.88243274  0.15961734  0.72989242    -0.06600
C1422       C  0.84152849  0.13775646  0.76963406    -0.06500
C1423       C  0.87975811  0.10184333  0.71651861    -0.05800
C1424       C  0.89904849  0.14295327  0.76217984    -0.06600
C1425       C  0.85808578  0.12101822  0.80153792    -0.06500
C1426       C  0.88615603  0.07837321  0.68493894    -0.31900
N1427       N  0.87324364  0.07995892  0.63515717     0.14600
C1428       C  0.85898592  0.10445510  0.63509963    -0.31900
H1429       H  0.84634259  0.11161650  0.60139379     0.16600
C1430       C  0.92209784  0.15920207  0.77660038    -0.30800
N1431       N  0.92076791  0.18457205  0.75159058     0.13400
C1432       C  0.89608362  0.18524474  0.72455471    -0.30800
C1433       C  0.84392659  0.11737830  0.85226392    -0.31100
N1434       N  0.81893904  0.13090830  0.85152682     0.13900
H1435       H  0.85125950  0.10549801  0.88704860     0.16500
C1436       C  0.81796085  0.14427032  0.80197415    -0.31100
H1437       H  0.80126932  0.15806161  0.79075852     0.16500
H1438       H  0.88875140  0.20309754  0.70198372     0.16500
H1439       H  0.89908394  0.06121432  0.69759232     0.16600
H1440       H  0.93880391  0.15305072  0.80332304     0.16500
N1441       N  0.74218561  0.38300567  0.08464503    -0.36200
N1442       N  0.78596326  0.38590868  0.99693850    -0.56800
N1443       N  0.74226206  0.38303702  0.91186699    -0.36200
N1444       N  0.69854712  0.38617089  0.99991724    -0.56800
C1445       C  0.76519460  0.38951104  0.11460682     0.27400
C1446       C  0.71916442  0.38962478  0.11603523     0.27400
C1447       C  0.76547902  0.38935629  0.88048706     0.27400
C1448       C  0.71929550  0.38964314  0.88209993     0.27400
C1449       C  0.80148994  0.37935700  0.04175426     0.36000
C1450       C  0.80157221  0.37944205  0.95079944     0.36000
C1451       C  0.68273394  0.37988387  0.04579595     0.36000
C1452       C  0.68264901  0.38040145  0.95505244     0.36000
C1453       C  0.75658752  0.40073946  0.16519318    -0.21500
C1454       C  0.72775696  0.40081300  0.16609010    -0.21500
C1455       C  0.75704242  0.40039974  0.83070718    -0.21500
C1456       C  0.72817108  0.40045366  0.83145510    -0.21500
C1457       C  0.82676202  0.36833342  0.02371625    -0.22600
C1458       C  0.82673079  0.36837475  0.96654156    -0.22600
C1459       C  0.65697435  0.36974863  0.02972355    -0.22600
C1460       C  0.65688677  0.37018230  0.97262843    -0.22600
C1461       C  0.79365917  0.38426761  0.09864185    -0.17900
C1462       C  0.69065617  0.38449831  0.10198099    -0.17900
C1463       C  0.69057745  0.38520077  0.89847153    -0.17900
C1464       C  0.79401459  0.38443101  0.89462160    -0.17900
H1465       H  0.76967818  0.40833806  0.19812049     0.15000
H1466       H  0.71465395  0.40848021  0.19985324     0.15000
H1467       H  0.77035179  0.40837431  0.79784694     0.15000
H1468       H  0.71523880  0.40811312  0.79865994     0.15000
H1469       H  0.84334993  0.36047290  0.04892414     0.13300
H1470       H  0.84300946  0.36032105  0.93953694     0.13300
H1471       H  0.64001912  0.36236980  0.05618213     0.13300
H1472       H  0.63987548  0.36322540  0.94707673     0.13300
H1473       H  0.74214837  0.37205290  0.04722475     0.26500
H1474       H  0.74208519  0.37242869  0.94942664     0.26500
N1475       N  0.74484311  0.13424547  0.08352989    -0.36200
N1476       N  0.78837560  0.12837135  0.99604274    -0.56800
N1477       N  0.74557811  0.13397178  0.91138984    -0.36200
N1478       N  0.70177218  0.13376509  0.99941778    -0.56800
C1479       C  0.76684570  0.12493029  0.11257510     0.27400
C1480       C  0.72148763  0.12960193  0.11498106     0.27400
C1481       C  0.76849849  0.12661454  0.88040538     0.27400
C1482       C  0.72249244  0.12770302  0.88152174     0.27400
C1483       C  0.80373827  0.13415078  0.04144731     0.36000
C1484       C  0.80454696  0.13520170  0.95111527     0.36000
C1485       C  0.68639798  0.14174611  0.04499595     0.36000
C1486       C  0.68646546  0.13963467  0.95397781     0.36000
C1487       C  0.75726242  0.11379948  0.16243538    -0.21500
C1488       C  0.72868089  0.11679288  0.16392731    -0.21500
C1489       C  0.75978902  0.11526721  0.83069419    -0.21500
C1490       C  0.73094368  0.11606413  0.83119000    -0.21500
C1491       C  0.82928984  0.14518963  0.02520092    -0.22600
C1492       C  0.82999533  0.14559964  0.96812281    -0.22600
C1493       C  0.66140114  0.15289276  0.02820679    -0.22600
C1494       C  0.66157869  0.15171270  0.97094065    -0.22600
C1495       C  0.79540937  0.12850968  0.09725528    -0.17900
C1496       C  0.69403039  0.13768020  0.10155601    -0.17900
C1497       C  0.69412281  0.13334178  0.89750104    -0.17900
C1498       C  0.79703132  0.13102212  0.89496538    -0.17900
H1499       H  0.76956360  0.10457344  0.19461031     0.15000
H1500       H  0.71474813  0.10995737  0.19697794     0.15000
H1501       H  0.77286902  0.10663376  0.79800869     0.15000
H1502       H  0.71772728  0.10854044  0.79840054     0.15000
H1503       H  0.84524570  0.15318074  0.05187042     0.13300
H1504       H  0.84702287  0.15335670  0.94225564     0.13300
H1505       H  0.64490917  0.16139962  0.05438965     0.13300
H1506       H  0.64564397  0.15974758  0.94458030     0.13300
H1507       H  0.74598882  0.14592021  0.04723091     0.26500
H1508       H  0.74581385  0.14510663  0.94858483     0.26500
C1509       C  0.88636390  0.39937088  0.77805507     0.30400
C1510       C  0.85308643  0.36864222  0.71220898     0.30400
C1511       C  0.85669837  0.39290244  0.80321690    -0.05800
C1512       C  0.87933389  0.41298284  0.72119155    -0.06600
C1513       C  0.89763638  0.37048941  0.76144830    -0.06500
C1514       C  0.84009445  0.37627784  0.77034185    -0.05800
C1515       C  0.86271205  0.39670460  0.68797855    -0.06600
C1516       C  0.88063722  0.35428012  0.72864508    -0.06500
C1517       C  0.81561001  0.37068511  0.80125275    -0.31900
N1518       N  0.81602124  0.38467713  0.85075743     0.14600
C1519       C  0.84112321  0.39844002  0.85191479    -0.31900
H1520       H  0.84776868  0.41139595  0.88615104     0.16600
C1521       C  0.85869490  0.41068880  0.63861396    -0.30800
N1522       N  0.87234823  0.43557303  0.63994802     0.13400
C1523       C  0.88445156  0.43745447  0.69091552    -0.30800
C1524       C  0.89434196  0.32887181  0.72133931    -0.31100
N1525       N  0.91954903  0.32995856  0.74684575     0.13900
H1526       H  0.88671381  0.31102310  0.69839947     0.16500
C1527       C  0.92141765  0.35537574  0.77186098    -0.31100
H1528       H  0.93885105  0.36240829  0.79625675     0.16500
H1529       H  0.89627539  0.45536538  0.70486849     0.16500
H1530       H  0.79860508  0.35732729  0.78847801     0.16600
H1531       H  0.84638173  0.40328864  0.60430647     0.16500
C1532       C  0.88590973  0.11607913  0.20919722     0.30400
C1533       C  0.85093385  0.14619870  0.27451775     0.30400
C1534       C  0.87761725  0.10207701  0.26543788    -0.05800
C1535       C  0.89696213  0.14494113  0.22658880    -0.06600
C1536       C  0.85686247  0.12170148  0.18461242    -0.06500
C1537       C  0.86054481  0.11808723  0.30014711    -0.05800
C1538       C  0.87945186  0.16021425  0.26078289    -0.06600
C1539       C  0.83939249  0.13721464  0.21810967    -0.06500
C1540       C  0.85864708  0.10390480  0.35044451    -0.31900
N1541       N  0.87170731  0.07878215  0.34589877     0.14600
C1542       C  0.88314366  0.07747995  0.29366367    -0.31900
H1543       H  0.89523664  0.06010175  0.27779562     0.16600
C1544       C  0.89431596  0.18399970  0.27623856    -0.30800
N1545       N  0.92011380  0.18376035  0.25093486     0.13400
C1546       C  0.92177105  0.15980370  0.22048890    -0.30800
C1547       C  0.81463936  0.14073810  0.19038701    -0.31100
N1548       N  0.81638930  0.12767055  0.14027815     0.13900
H1549       H  0.79684987  0.15262920  0.20519844     0.16500
C1550       C  0.84186173  0.11521538  0.13712185    -0.31100
H1551       H  0.84895626  0.10259421  0.10234902     0.16500
H1552       H  0.93986211  0.15344408  0.19608745     0.16500
H1553       H  0.84857857  0.11139671  0.38814720     0.16600
H1554       H  0.88688546  0.20025246  0.30404743     0.16500
C1555       C  0.63600449  0.14973907  0.72133760     0.30400
C1556       C  0.60167901  0.11928305  0.78846647     0.30400
C1557       C  0.64820382  0.14171098  0.77790553    -0.05800
C1558       C  0.60745687  0.16361943  0.73652134    -0.06600
C1559       C  0.62595007  0.12145607  0.69644724    -0.06500
C1560       C  0.63120021  0.12576435  0.81191058    -0.05800
C1561       C  0.59039187  0.14806139  0.77169016    -0.06600
C1562       C  0.60929477  0.10525296  0.73128174    -0.06500
C1563       C  0.64703417  0.11969083  0.85863575    -0.31900
N1564       N  0.67242252  0.13278948  0.85508803     0.14600
C1565       C  0.67329984  0.14603459  0.80515045    -0.31900
H1566       H  0.69086627  0.15821119  0.78969258     0.16600
C1567       C  0.56560969  0.16258353  0.77965459    -0.30800
N1568       N  0.56663822  0.18665047  0.74984677     0.13400
C1569       C  0.59203886  0.18722474  0.72271329    -0.30800
C1570       C  0.60395746  0.08047028  0.70197850    -0.31100
N1571       N  0.61559757  0.08182675  0.64963409     0.13900
H1572       H  0.59212282  0.06278474  0.71755651     0.16500
C1573       C  0.62853860  0.10715883  0.64606459    -0.31100
H1574       H  0.63975121  0.11448230  0.60950433     0.16500
H1575       H  0.59880598  0.20355200  0.69458570     0.16500
H1576       H  0.64057053  0.10666082  0.89310271     0.16600
H1577       H  0.54793864  0.15588345  0.80502019     0.16500
C1578       C  0.63354506  0.36508087  0.28323182     0.30400
C1579       C  0.60112896  0.40024188  0.22607311     0.30400
C1580       C  0.64607215  0.37484365  0.22659792    -0.05800
C1581       C  0.60423635  0.35415722  0.26931873    -0.06600
C1582       C  0.62808397  0.39400457  0.31218879    -0.06500
C1583       C  0.62903001  0.39171666  0.19574683    -0.05800
C1584       C  0.58780887  0.37141928  0.23904065    -0.06600
C1585       C  0.61115655  0.41137120  0.28224649    -0.06500
C1586       C  0.64323919  0.39599250  0.14517913    -0.31900
N1587       N  0.66909042  0.38415904  0.14627555     0.14600
C1588       C  0.67099953  0.37160222  0.19660669    -0.31900
H1589       H  0.68895287  0.36002926  0.20991970     0.16600
C1590       C  0.56362578  0.35612622  0.22750126    -0.30800
N1591       N  0.56487200  0.33043046  0.25192422     0.13400
C1592       C  0.58972933  0.32937519  0.27780155    -0.30800
C1593       C  0.60868572  0.43657338  0.31016706    -0.31100
N1594       N  0.62365729  0.43580431  0.35720147     0.13900
H1595       H  0.59642278  0.45418644  0.29733499     0.16500
C1596       C  0.63606074  0.41000692  0.35838961    -0.31100
H1597       H  0.64971205  0.40321417  0.39078756     0.16500
H1598       H  0.59695167  0.31169385  0.30109907     0.16500
H1599       H  0.63544286  0.40731734  0.11012310     0.16600
H1600       H  0.54639319  0.36326403  0.20311504     0.16500
O1601       O  0.52105866  0.05161550  0.07398011    -0.79800
O1602       O  0.97540095  0.02978117  0.87089125    -0.79800
O1603       O  0.55134239  0.02484285  0.95360350    -0.79800
O1604       O  0.93612407  0.01936697  0.05082101    -0.79700
O1605       O  0.51361730  0.05009513  0.94175684    -0.79800
O1606       O  0.96947388  0.04901601  0.05735769    -0.79800
O1607       O  0.95070994  0.03374217  0.94884361    -0.79800
O1608       O  0.55484247  0.02186280  0.06443186    -0.78800
C1609       C  0.54592976  0.04559302  0.07962597     1.09900
C1610       C  0.95488671  0.03978669  0.89755068     1.09800
C1611       C  0.53952064  0.04633899  0.93444581     1.10000
C1612       C  0.94487759  0.04284692  0.06692314     1.09800
O1613       O  0.96593935  0.49389469  0.11458251    -0.79800
O1614       O  0.52011424  0.49767634  0.89070680    -0.79800
O1615       O  0.52740450  0.46726852  0.06139078    -0.79800
O1616       O  0.92800676  0.48320755  0.96442342    -0.79700
O1617       O  0.96861328  0.47994544  0.91908227    -0.79800
O1618       O  0.52099183  0.49748331  0.12887771    -0.79800
O1619       O  0.96426929  0.46630935  0.04174690    -0.79700
O1620       O  0.52813622  0.46746830  0.95408519    -0.79800
Co1621     Co  0.99428975  0.02300247  0.09040621     1.51500
Co1622     Co  0.99057370  0.01648016  0.93627846     1.51700
Co1623     Co  0.53858395  0.99533203  0.00835057     1.51600
Co1624     Co  0.96025359  0.99882455  0.99497909     1.51500
O1625       O  0.99948985  0.00840493  0.01396348    -1.41700
C1626       C  0.95902653  0.47086744  0.09236167     1.09900
C1627       C  0.53092661  0.47521926  0.90523008     1.10000
C1628       C  0.52943650  0.47389819  0.11117645     1.09900
C1629       C  0.94271731  0.47292796  0.92519449     1.09900
O1630       O  0.78924496  0.22458188  0.44697515    -0.79800
O1631       O  0.75625850  0.31589940  0.56103234    -0.79800
O1632       O  0.76461438  0.28107755  0.39444165    -0.79800
O1633       O  0.76284330  0.23411332  0.62665189    -0.79700
O1634       O  0.76363761  0.31503938  0.45407815    -0.79800
O1635       O  0.79106547  0.22746019  0.55639036    -0.79800
O1636       O  0.77759587  0.27982150  0.58719395    -0.79800
O1637       O  0.75645053  0.22796199  0.38604042    -0.79800
C1638       C  0.78053973  0.21989575  0.39945725     1.09900
C1639       C  0.77640854  0.30531440  0.58476573     1.09800
C1640       C  0.77285817  0.30476847  0.41002849     1.10000
C1641       C  0.78564438  0.22441427  0.60709410     1.09800
O1642       O  0.73694372  0.20150653  0.56593469    -0.79800
O1643       O  0.70893358  0.29455169  0.43448919    -0.79800
O1644       O  0.70556261  0.23246825  0.45700899    -0.79800
O1645       O  0.72288504  0.28293423  0.63092929    -0.79700
O1646       O  0.70297124  0.28804911  0.55002457    -0.79800
O1647       O  0.73420756  0.19819915  0.45525805    -0.79800
O1648       O  0.70886560  0.23657145  0.57237863    -0.79700
O1649       O  0.71320979  0.26363263  0.36648602    -0.79800
Co1650     Co  0.76271360  0.21551186  0.50550773     1.51500
Co1651     Co  0.73464613  0.29855669  0.50021993     1.51700
Co1652     Co  0.73509292  0.25733781  0.42867249     1.51600
Co1653     Co  0.74244318  0.26028665  0.57700148     1.51500
O1654       O  0.75278336  0.25695615  0.49971692    -1.41700
C1655       C  0.71392476  0.21153591  0.58238852     1.09900
C1656       C  0.70090064  0.28435123  0.38808685     1.10000
C1657       C  0.71005641  0.20729811  0.44613627     1.09900
C1658       C  0.70353850  0.29302970  0.60176787     1.09900
C1659       C  0.55469562  0.42600073  0.22131690    -0.01500
C1660       C  0.58226834  0.42120564  0.20022185     0.08200
C1661       C  0.59321188  0.43964802  0.16042484    -0.01600
C1662       C  0.57504071  0.45310747  0.12615364    -0.01600
C1663       C  0.54705000  0.45645252  0.14388571     0.08300
C1664       C  0.53713698  0.44407314  0.19296575    -0.01800
Br1665     Br  0.49940365  0.45067717  0.21909090    -0.00300
Br1666     Br  0.54175631  0.41187742  0.29233486    -0.00400
Br1667     Br  0.59015132  0.46786632  0.05729290    -0.00400
Br1668     Br  0.62922779  0.45741184  0.17039935    -0.00300
C1669       C  0.67698292  0.29949104  0.30236366    -0.01500
C1670       C  0.67836456  0.29882056  0.36054625     0.08200
C1671       C  0.65950584  0.31500322  0.39296623    -0.01600
C1672       C  0.64434484  0.33609711  0.36789100    -0.01600
C1673       C  0.64887307  0.34163687  0.31084310     0.08300
C1674       C  0.66020556  0.31941252  0.27785465    -0.01800
Br1675     Br  0.64849895  0.31129931  0.20259503    -0.00300
Br1676     Br  0.69751701  0.27388488  0.25461544    -0.00400
Br1677     Br  0.61360498  0.35230429  0.40983079    -0.00400
Br1678     Br  0.65296166  0.30773582  0.47128146    -0.00300
C1679       C  0.66375748  0.19404396  0.70000174    -0.01500
C1680       C  0.65735068  0.16591909  0.68717824     0.08200
C1681       C  0.67695928  0.15151327  0.65303537    -0.01600
C1682       C  0.69270676  0.16629321  0.61368554    -0.01600
C1683       C  0.69533742  0.19538715  0.61955373     0.08300
C1684       C  0.68446551  0.20786679  0.66857241    -0.01800
Br1685     Br  0.70417076  0.23823310  0.70340648    -0.00300
Br1686     Br  0.64948742  0.21221674  0.76672056    -0.00400
Br1687     Br  0.71290144  0.14552361  0.55756536    -0.00400
Br1688     Br  0.69107705  0.11529661  0.67390258    -0.00300
C1689       C  0.57459631  0.08394861  0.91788684    -0.01500
C1690       C  0.55513873  0.06497201  0.89670174     0.08200
C1691       C  0.54832385  0.06636150  0.83977646    -0.01600
C1692       C  0.56001701  0.08718716  0.80614002    -0.01600
C1693       C  0.58158857  0.10391779  0.82685042     0.08300
C1694       C  0.58447394  0.10557743  0.88462703    -0.01800
Br1695     Br  0.59173743  0.14095822  0.91986699    -0.00300
Br1696     Br  0.59297995  0.07774200  0.98641168    -0.00400
Br1697     Br  0.54189276  0.09654591  0.73766853    -0.00400
Br1698     Br  0.52716987  0.03795474  0.80280263    -0.00300
C1699       C  0.91356063  0.08201557  0.08025382    -0.01500
C1700       C  0.92986897  0.06126494  0.10377228     0.08200
C1701       C  0.93959935  0.06476728  0.15874497    -0.01600
C1702       C  0.92783469  0.08528973  0.19274537    -0.01600
C1703       C  0.90609565  0.10117211  0.17171035     0.08300
C1704       C  0.90438712  0.10381829  0.11389761    -0.01800
Br1705     Br  0.89875246  0.13995069  0.08160227    -0.00300
Br1706     Br  0.90616407  0.08237422  0.00196321    -0.00400
Br1707     Br  0.94526277  0.09528701  0.26203698    -0.00400
Br1708     Br  0.96990275  0.04334338  0.18789968    -0.00300
C1709       C  0.80663792  0.20934615  0.31301744    -0.01500
C1710       C  0.79642320  0.20094149  0.36492573     0.08200
C1711       C  0.80127882  0.17381206  0.38420423    -0.01600
C1712       C  0.81383254  0.15468761  0.34875514    -0.01600
C1713       C  0.83011967  0.16465027  0.30390784     0.08300
C1714       C  0.82440248  0.19169173  0.28286849    -0.01800
Br1715     Br  0.83806520  0.20454236  0.21108258    -0.00300
Br1716     Br  0.79812480  0.24566063  0.28558782    -0.00400
Br1717     Br  0.79621538  0.11832693  0.34606923    -0.00400
Br1718     Br  0.79260933  0.16210076  0.45913470    -0.00300
C1719       C  0.80552452  0.36055953  0.67444152    -0.01500
C1720       C  0.83409113  0.35406447  0.67267857     0.08200
C1721       C  0.84412754  0.33749020  0.62792238    -0.01600
C1722       C  0.82517082  0.32068404  0.59926957    -0.01600
C1723       C  0.79654374  0.32232786  0.61313945     0.08300
C1724       C  0.78683930  0.34212851  0.65151406    -0.01800
Br1725     Br  0.74921346  0.34212644  0.68031015    -0.00300
Br1726     Br  0.79212303  0.39759021  0.69169590    -0.00400
Br1727     Br  0.83826551  0.29670583  0.53997690    -0.00400
Br1728     Br  0.88120870  0.34281258  0.59630811    -0.00300
C1729       C  0.92637213  0.43293285  0.79488165    -0.01500
C1730       C  0.90605637  0.41446854  0.81586480     0.08200
C1731       C  0.90571425  0.40909979  0.87323687    -0.01600
C1732       C  0.91589887  0.42933750  0.90940166    -0.01600
C1733       C  0.93086462  0.45229229  0.88758855     0.08300
C1734       C  0.93693574  0.45351912  0.82984328    -0.01800
Br1735     Br  0.95871884  0.48300670  0.79603218    -0.00300
Br1736     Br  0.94624616  0.42440916  0.72616048    -0.00400
Br1737     Br  0.90885697  0.42499837  0.98788266    -0.00400
Br1738     Br  0.89782336  0.37216108  0.90125636    -0.00300
C1739       C  0.93333602  0.09562460  0.80406277    -0.01500
C1740       C  0.90412631  0.09304300  0.80533568     0.08200
C1741       C  0.89201315  0.06878961  0.82932362    -0.01600
C1742       C  0.90841255  0.05173039  0.86211101    -0.01600
C1743       C  0.93660250  0.05885813  0.87020811     0.08300
C1744       C  0.94861084  0.08169365  0.84288540    -0.01800
Br1745     Br  0.98552759  0.09496068  0.85857859    -0.00300
Br1746     Br  0.95321625  0.10495580  0.73632429    -0.00400
Br1747     Br  0.89207216  0.01843490  0.89328560    -0.00400
Br1748     Br  0.85500019  0.05561919  0.81032973    -0.00300
C1749       C  0.83208291  0.20321295  0.61864348    -0.01500
C1750       C  0.80378540  0.20578923  0.63715001     0.08200
C1751       C  0.79149182  0.18414475  0.66891645    -0.01600
C1752       C  0.80730606  0.16099017  0.68122937    -0.01600
C1753       C  0.83630404  0.16263566  0.67538804     0.08300
C1754       C  0.84787408  0.18073000  0.63584081    -0.01800
Br1755     Br  0.88266572  0.17164882  0.59755744    -0.00300
Br1756     Br  0.85028540  0.22948911  0.56954440    -0.00400
Br1757     Br  0.78921875  0.12505952  0.68947719    -0.00400
Br1758     Br  0.75347692  0.18420146  0.69558735    -0.00300
C1759       C  0.59469018  0.44715798  0.83345342    -0.01500
C1760       C  0.58287870  0.42271316  0.81042526     0.08200
C1761       C  0.55384618  0.42222196  0.80248286    -0.01600
C1762       C  0.53691115  0.43760305  0.83776927    -0.01600
C1763       C  0.54860415  0.45944600  0.86801910     0.08300
C1764       C  0.57745778  0.46534865  0.86330931    -0.01800
Br1765     Br  0.59469863  0.49708597  0.89781771    -0.00300
Br1766     Br  0.63277597  0.45909480  0.81657510    -0.00400
Br1767     Br  0.49862143  0.42659248  0.84658639    -0.00400
Br1768     Br  0.53801134  0.41194917  0.73216993    -0.00300
C1769       C  0.67460292  0.35903113  0.65539064    -0.01500
C1770       C  0.65361845  0.34871962  0.69150637     0.08200
C1771       C  0.65206496  0.31983671  0.70162148    -0.01600
C1772       C  0.66377619  0.30168598  0.66348034    -0.01600
C1773       C  0.68334037  0.31184454  0.62527451     0.08300
C1774       C  0.68767152  0.34065676  0.61869555    -0.01800
Br1775     Br  0.70940500  0.35561803  0.55756567    -0.00300
Br1776     Br  0.69207289  0.39502344  0.66774102    -0.00400
Br1777     Br  0.64611825  0.26612152  0.65263101    -0.00400
Br1778     Br  0.64289356  0.30483397  0.77387561    -0.00300
C1779       C  0.81597722  0.32626287  0.28694533    -0.01500
C1780       C  0.83490942  0.34496164  0.31098800     0.08200
C1781       C  0.83684855  0.34568720  0.36900355    -0.01600
C1782       C  0.81440650  0.33638684  0.40141318    -0.01600
C1783       C  0.79329911  0.32025838  0.37651213     0.08300
C1784       C  0.79350450  0.31664105  0.31865279    -0.01800
Br1785     Br  0.76016975  0.30635948  0.28060426    -0.00300
Br1786     Br  0.82383383  0.30853359  0.21604069    -0.00400
Br1787     Br  0.81070172  0.35204818  0.47488362    -0.00400
Br1788     Br  0.87236195  0.35099447  0.40404625    -0.00300
C1789       C  0.92248041  0.40462127  0.13447838    -0.01500
C1790       C  0.90163619  0.41510898  0.17075593     0.08200
C1791       C  0.89568873  0.44372514  0.16912563    -0.01600
C1792       C  0.91586997  0.46212039  0.14860701    -0.01600
C1793       C  0.94034146  0.45165565  0.12215393     0.08300
C1794       C  0.94324142  0.42266477  0.11410024    -0.01800
Br1795     Br  0.97546403  0.40719001  0.07601979    -0.00300
Br1796     Br  0.91692307  0.36941881  0.09654945    -0.00400
Br1797     Br  0.90816587  0.00117055  0.15760184    -0.00400
Br1798     Br  0.85856556  0.45766960  0.18675876    -0.00300
C1799       C  0.68184238  0.15302416  0.34566432    -0.01500
C1800       C  0.65828488  0.16719499  0.32539033     0.08200
C1801       C  0.65392144  0.19477488  0.34259831    -0.01600
C1802       C  0.66637269  0.20470713  0.39062677    -0.01600
C1803       C  0.69003063  0.19111724  0.41173307     0.08300
C1804       C  0.69741482  0.16475552  0.38878662    -0.01800
Br1805     Br  0.72766258  0.14283074  0.41620527    -0.00300
Br1806     Br  0.69485746  0.11836610  0.31204738    -0.00400
Br1807     Br  0.64863030  0.23608431  0.42659668    -0.00400
Br1808     Br  0.64519417  0.22254058  0.28836730    -0.00300
C1809       C  0.58240434  0.05486882  0.14795477    -0.01500
C1810       C  0.56313771  0.06512084  0.11031244     0.08200
C1811       C  0.56016275  0.09425768  0.10343989    -0.01600
C1812       C  0.57602261  0.11249033  0.13580295    -0.01600
C1813       C  0.59178576  0.10154396  0.17959522     0.08300
C1814       C  0.59919403  0.07320422  0.17633769    -0.01800
Br1815     Br  0.63564400  0.05969614  0.19613273    -0.00300
Br1816     Br  0.58305960  0.01682442  0.17143853    -0.00400
Br1817     Br  0.58167841  0.15021124  0.10919319    -0.00400
Br1818     Br  0.53497668  0.10979195  0.04990939    -0.00300
C1819       C  0.60615664  0.61991883  0.22089881     0.30400
C1820       C  0.63786038  0.65195287  0.28814307     0.30400
C1821       C  0.63413502  0.62946697  0.19612866    -0.05800
C1822       C  0.59217789  0.64747077  0.24044228    -0.06600
C1823       C  0.61315699  0.60641623  0.27772414    -0.06500
C1824       C  0.65045492  0.64584506  0.22919309    -0.05800
C1825       C  0.60817848  0.66410121  0.27550310    -0.06600
C1826       C  0.62931228  0.62279557  0.31174624    -0.06500
C1827       C  0.67454524  0.65179055  0.19720891    -0.31900
N1828       N  0.67277192  0.63914612  0.14608699     0.14600
C1829       C  0.64794407  0.62549155  0.14567174    -0.31900
H1830       H  0.64062885  0.61290725  0.11141031     0.16600
C1831       C  0.59072562  0.68621145  0.29157142    -0.30800
N1832       N  0.56595106  0.68453670  0.26461682     0.13400
C1833       C  0.56635252  0.66021526  0.23524897    -0.30800
C1834       C  0.63238806  0.60807160  0.36123039    -0.31100
N1835       N  0.61894191  0.58288778  0.35833065     0.13900
H1836       H  0.64390443  0.61521896  0.39680688     0.16500
C1837       C  0.60651421  0.58215122  0.30770962    -0.31100
H1838       H  0.59346807  0.56515174  0.29353687     0.16500
H1839       H  0.54915784  0.65252523  0.21099487     0.16500
H1840       H  0.69223911  0.66401971  0.21068050     0.16600
H1841       H  0.59523269  0.70224927  0.32175138     0.16500
N1842       N  0.99300524  0.71347317  0.25620262    -0.36200
N1843       N  0.53611265  0.75717021  0.26079282    -0.56800
N1844       N  0.99266976  0.79991168  0.24915476    -0.36200
N1845       N  0.94937167  0.75655547  0.25627093    -0.56800
C1846       C  0.51553477  0.69811427  0.27050399     0.27400
C1847       C  0.96965066  0.69787249  0.26636919     0.27400
C1848       C  0.51526072  0.81548950  0.26293616     0.27400
C1849       C  0.96959846  0.81509061  0.26226821     0.27400
C1850       C  0.55214779  0.73421251  0.25131575     0.36000
C1851       C  0.55175464  0.77979634  0.24558497     0.36000
C1852       C  0.93411373  0.73354996  0.24324070     0.36000
C1853       C  0.93399922  0.77899376  0.24173237     0.36000
C1854       C  0.50627448  0.67250901  0.29025429    -0.21500
C1855       C  0.97746937  0.67235836  0.28762131    -0.21500
C1856       C  0.50638863  0.84047822  0.28601264    -0.21500
C1857       C  0.97763923  0.84032019  0.28538614    -0.21500
C1858       C  0.57784792  0.74236546  0.22951413    -0.22600
C1859       C  0.57756325  0.77102717  0.22579398    -0.22600
C1860       C  0.90926667  0.74149096  0.21998379    -0.22600
C1861       C  0.90912113  0.77014878  0.21913157    -0.22600
C1862       C  0.54421317  0.70599237  0.26300247    -0.17900
C1863       C  0.94165523  0.70545053  0.25394328    -0.17900
C1864       C  0.94162482  0.80735993  0.25083703    -0.17900
C1865       C  0.54360664  0.80829618  0.25241573    -0.17900
H1866       H  0.51892503  0.65558788  0.30495820     0.15000
H1867       H  0.96383698  0.65535110  0.30006857     0.15000
H1868       H  0.51927942  0.85692228  0.30254224     0.15000
H1869       H  0.96421496  0.85683518  0.30068122     0.15000
H1870       H  0.59479683  0.72901748  0.21606201     0.13300
H1871       H  0.59429742  0.78387125  0.20930029     0.13300
H1872       H  0.89319171  0.72802660  0.20394242     0.13300
H1873       H  0.89275097  0.78291569  0.20266658     0.13300
H1874       H  0.99363304  0.73236824  0.23526637     0.26500
H1875       H  0.99309988  0.78132126  0.22660216     0.26500
C1876       C  0.85178642  0.86461285  0.27528127     0.30400
C1877       C  0.88489192  0.89656430  0.20920585     0.30400
C1878       C  0.83867654  0.87372481  0.21955225    -0.05800
C1879       C  0.86026863  0.89330648  0.30098179    -0.06600
C1880       C  0.87985321  0.85161726  0.25802679    -0.06500
C1881       C  0.85603661  0.88924069  0.18544850    -0.05800
C1882       C  0.87801690  0.90922466  0.26779697    -0.06600
C1883       C  0.89724741  0.86795754  0.22535692    -0.06500
C1884       C  0.84146625  0.89502742  0.13744422    -0.31900
N1885       N  0.81521202  0.88388368  0.14138672     0.14600
C1886       C  0.81322402  0.87151819  0.19229920    -0.31900
H1887       H  0.79462001  0.86114398  0.20808537     0.16600
C1888       C  0.88477771  0.93307235  0.29850775    -0.30800
N1889       N  0.87069533  0.93282101  0.34835752     0.13400
C1890       C  0.85532971  0.90874518  0.34963426    -0.30800
C1891       C  0.92261996  0.85393100  0.22173205    -0.31100
N1892       N  0.92031975  0.82894182  0.24829408     0.13900
H1893       H  0.94157060  0.86142122  0.20157558     0.16500
C1894       C  0.89421931  0.82769707  0.27141142    -0.31100
H1895       H  0.88641141  0.81088151  0.29730241     0.16500
H1896       H  0.84146441  0.90291994  0.38366478     0.16500
H1897       H  0.84943950  0.90688273  0.10240403     0.16600
H1898       H  0.89879758  0.94962274  0.28521577     0.16500
N1899       N  0.61883387  0.50914918  0.41596483    -0.36200
N1900       N  0.62191903  0.96551686  0.50162665    -0.56800
N1901       N  0.61501867  0.50874214  0.58877934    -0.36200
N1902       N  0.61785843  0.55259947  0.50332613    -0.56800
C1903       C  0.62689748  0.98642721  0.38525789     0.27400
C1904       C  0.62452467  0.53254454  0.38561068     0.27400
C1905       C  0.62215811  0.98581931  0.61841628     0.27400
C1906       C  0.62071431  0.53178660  0.62011068     0.27400
C1907       C  0.61682336  0.94980449  0.45585536     0.36000
C1908       C  0.61431104  0.94966708  0.54602696     0.36000
C1909       C  0.61266414  0.56851973  0.45797655     0.36000
C1910       C  0.61117086  0.56817518  0.54921465     0.36000
C1911       C  0.63794721  0.99559299  0.33496846    -0.21500
C1912       C  0.63662436  0.52443831  0.33542630    -0.21500
C1913       C  0.63279528  0.99449823  0.66869466    -0.21500
C1914       C  0.63188332  0.52328522  0.66981988    -0.21500
C1915       C  0.60550814  0.92433856  0.47134112    -0.22600
C1916       C  0.60399897  0.92417834  0.52830215    -0.22600
C1917       C  0.60236602  0.59411266  0.47536823    -0.22600
C1918       C  0.60137633  0.59387936  0.53261331    -0.22600
C1919       C  0.62316367  0.95762985  0.40026929    -0.17900
C1920       C  0.61835201  0.56091915  0.40117397    -0.17900
C1921       C  0.61531633  0.56019811  0.60582436    -0.17900
C1922       C  0.61804818  0.95727775  0.60237237    -0.17900
H1923       H  0.64637982  0.98284562  0.30151883     0.15000
H1924       H  0.64435623  0.53795470  0.30293663     0.15000
H1925       H  0.64085872  0.98147084  0.70100329     0.15000
H1926       H  0.63913017  0.53639962  0.70330047     0.15000
H1927       H  0.59829477  0.90788591  0.44437018     0.13300
H1928       H  0.59576450  0.90735709  0.55363229     0.13300
H1929       H  0.59592211  0.61120175  0.44958947     0.13300
H1930       H  0.59399408  0.61075715  0.55888900     0.13300
H1931       H  0.60766534  0.50856995  0.45342278     0.26500
H1932       H  0.60442797  0.50851985  0.55149030     0.26500
N1933       N  0.87435126  0.50608923  0.40554530    -0.36200
N1934       N  0.87122451  0.96326518  0.49341442    -0.56800
N1935       N  0.87479948  0.50725956  0.57774757    -0.36200
N1936       N  0.87261057  0.55002428  0.49060426    -0.56800
C1937       C  0.86675890  0.98292137  0.37643996     0.27400
C1938       C  0.86761274  0.52883315  0.37501074     0.27400
C1939       C  0.86781813  0.98477629  0.60936090     0.27400
C1940       C  0.86775540  0.53042698  0.60740058     0.27400
C1941       C  0.87658215  0.94706290  0.44786067     0.36000
C1942       C  0.87729028  0.94781170  0.53887632     0.36000
C1943       C  0.87856644  0.56557591  0.44482726     0.36000
C1944       C  0.87851482  0.56615043  0.53548935     0.36000
C1945       C  0.85478198  0.99110030  0.32743610    -0.21500
C1946       C  0.85535906  0.51989319  0.32637432    -0.21500
C1947       C  0.85593366  0.99380128  0.65911611    -0.21500
C1948       C  0.85582653  0.52250652  0.65779295    -0.21500
C1949       C  0.88639721  0.92145374  0.46456559    -0.22600
C1950       C  0.88681096  0.92186176  0.52183529    -0.22600
C1951       C  0.88869960  0.59146995  0.46090818    -0.22600
C1952       C  0.88856487  0.59185924  0.51811173    -0.22600
C1953       C  0.87150118  0.95458840  0.39158672    -0.17900
C1954       C  0.87307888  0.55737048  0.38905105    -0.17900
C1955       C  0.87335348  0.55852539  0.59184698    -0.17900
C1956       C  0.87296143  0.95638442  0.59547680    -0.17900
H1957       H  0.84592086  0.97767508  0.29624031     0.15000
H1958       H  0.84721166  0.53272158  0.29375701     0.15000
H1959       H  0.84784736  0.98107541  0.69278551     0.15000
H1960       H  0.84764970  0.53600351  0.69022526     0.15000
H1961       H  0.89318456  0.90446768  0.43813085     0.13300
H1962       H  0.89373394  0.90505054  0.54780336     0.13300
H1963       H  0.89555882  0.60838628  0.43432019     0.13300
H1964       H  0.89521976  0.60910641  0.54388502     0.13300
H1965       H  0.88589523  0.50627665  0.44166892     0.26500
H1966       H  0.88634044  0.50688149  0.54066948     0.26500
C1967       C  0.60092347  0.90162128  0.78200372     0.30400
C1968       C  0.63402662  0.86793217  0.72104165     0.30400
C1969       C  0.62891624  0.89363399  0.80970149    -0.05800
C1970       C  0.58798050  0.87239163  0.76903822    -0.06600
C1971       C  0.60971032  0.91288732  0.72466919    -0.06500
C1972       C  0.64580747  0.87679792  0.77740907    -0.05800
C1973       C  0.60464542  0.85565055  0.73562924    -0.06600
C1974       C  0.62629767  0.89582619  0.69245662    -0.06500
C1975       C  0.67011045  0.87192992  0.80619908    -0.31900
N1976       N  0.66881664  0.88529616  0.85618063     0.14600
C1977       C  0.64335317  0.89819995  0.85900228    -0.31900
H1978       H  0.63596214  0.91050504  0.89403193     0.16600
C1979       C  0.58923225  0.83161866  0.72392411    -0.30800
N1980       N  0.56442728  0.83221424  0.75237353     0.13400
C1981       C  0.56360884  0.85701000  0.78058824    -0.30800
C1982       C  0.63033200  0.90988715  0.64208998    -0.31100
N1983       N  0.61768732  0.93540718  0.64467691     0.13900
H1984       H  0.64198990  0.90222832  0.60630871     0.16500
C1985       C  0.60455338  0.93694308  0.69499332    -0.31100
H1986       H  0.59200820  0.95436899  0.70916838     0.16500
H1987       H  0.54636844  0.86352456  0.80718371     0.16500
H1988       H  0.68744858  0.85929959  0.79173119     0.16600
H1989       H  0.59565491  0.81469434  0.69678155     0.16500
N1990       N  0.53623306  0.75890833  0.74586653    -0.36200
N1991       N  0.99349254  0.71496341  0.75296130    -0.56800
N1992       N  0.94946899  0.75759848  0.74667153    -0.36200
N1993       N  0.99207689  0.80151886  0.75182303    -0.56800
C1994       C  0.55156037  0.73629074  0.75980041     0.27400
C1995       C  0.55046331  0.78210462  0.76213020     0.27400
C1996       C  0.93427794  0.73462960  0.76096714     0.27400
C1997       C  0.93359757  0.78035455  0.75832808     0.27400
C1998       C  0.51648078  0.69965841  0.73908051     0.36000
C1999       C  0.97079191  0.69916586  0.74018359     0.36000
C2000       C  0.51495071  0.81739159  0.73952211     0.36000
C2001       C  0.96949627  0.81652778  0.73693758     0.36000
C2002       C  0.57556641  0.74523668  0.78561772    -0.21500
C2003       C  0.57468551  0.77403264  0.78755423    -0.21500
C2004       C  0.90858529  0.74295287  0.78247857    -0.21500
C2005       C  0.90814411  0.77172893  0.78074127    -0.21500
C2006       C  0.50830720  0.67427469  0.71698853    -0.22600
C2007       C  0.97952738  0.67419038  0.71699396    -0.22600
C2008       C  0.50689337  0.84217653  0.71597756    -0.22600
C2009       C  0.97819768  0.84172488  0.71440429    -0.22600
C2010       C  0.54469323  0.70787150  0.74848157    -0.17900
C2011       C  0.54290880  0.81031370  0.75170238    -0.17900
C2012       C  0.94111650  0.80853085  0.74667834    -0.17900
C2013       C  0.94231165  0.70642881  0.75136045    -0.17900
H2014       H  0.59164190  0.73233970  0.80272384     0.15000
H2015       H  0.58968034  0.78754753  0.80705569     0.15000
H2016       H  0.89179988  0.72970585  0.79779444     0.15000
H2017       H  0.89100960  0.78475579  0.79464771     0.15000
H2018       H  0.52168261  0.65783303  0.70122759     0.13300
H2019       H  0.96645549  0.65807492  0.69987594     0.13300
H2020       H  0.52037738  0.85846903  0.70005338     0.13300
H2021       H  0.96528188  0.85796845  0.69780630     0.13300
H2022       H  0.51841455  0.75859367  0.72183233     0.26500
H2023       H  0.96842922  0.75762117  0.72482313     0.26500
C2024       C  0.85440294  0.64597568  0.71216967     0.30400
C2025       C  0.88677107  0.61336292  0.77434696     0.30400
C2026       C  0.86305920  0.61827308  0.68514469    -0.05800
C2027       C  0.88243300  0.65961704  0.72989054    -0.06600
C2028       C  0.84152881  0.63775607  0.76963210    -0.06500
C2029       C  0.87975870  0.60184306  0.71651701    -0.05800
C2030       C  0.89904877  0.64295312  0.76217820    -0.06600
C2031       C  0.85808616  0.62101800  0.80153614    -0.06500
C2032       C  0.88615674  0.57837292  0.68493744    -0.31900
N2033       N  0.87324427  0.57995847  0.63515571     0.14600
C2034       C  0.85898640  0.60445457  0.63509804    -0.31900
H2035       H  0.84634299  0.61161583  0.60139220     0.16600
C2036       C  0.92209790  0.65920208  0.77659917    -0.30800
N2037       N  0.92076786  0.68457202  0.75158935     0.13400
C2038       C  0.89608369  0.68524456  0.72455310    -0.30800
C2039       C  0.84392697  0.61737816  0.85226212    -0.31100
N2040       N  0.81893936  0.63090807  0.85152497     0.13900
H2041       H  0.85125999  0.60549793  0.88704701     0.16500
C2042       C  0.81796112  0.64426990  0.80197203    -0.31100
H2043       H  0.80126951  0.65806106  0.79075607     0.16500
H2044       H  0.88875141  0.70309736  0.70198220     0.16500
H2045       H  0.89908465  0.56121422  0.69759082     0.16600
H2046       H  0.93880390  0.65305093  0.80332223     0.16500
N2047       N  0.74218585  0.88300542  0.08464449    -0.36200
N2048       N  0.78596335  0.88590872  0.99693872    -0.56800
N2049       N  0.74226217  0.88303702  0.91186713    -0.36200
N2050       N  0.69854721  0.88617055  0.99991675    -0.56800
C2051       C  0.76519474  0.88951104  0.11460676     0.27400
C2052       C  0.71916455  0.88962436  0.11603484     0.27400
C2053       C  0.76547913  0.88935652  0.88048709     0.27400
C2054       C  0.71929562  0.88964328  0.88209974     0.27400
C2055       C  0.80149009  0.87935711  0.04175449     0.36000
C2056       C  0.80157232  0.87944219  0.95079962     0.36000
C2057       C  0.68273412  0.87988321  0.04579540     0.36000
C2058       C  0.68264910  0.88040127  0.95505186     0.36000
C2059       C  0.75658751  0.90073943  0.16519302    -0.21500
C2060       C  0.72775695  0.90081265  0.16608976    -0.21500
C2061       C  0.75704254  0.90040013  0.83070729    -0.21500
C2062       C  0.72817120  0.90045396  0.83145509    -0.21500
C2063       C  0.82676220  0.86833365  0.02371650    -0.22600
C2064       C  0.82673093  0.86837497  0.96654179    -0.22600
C2065       C  0.65697458  0.86974788  0.02972279    -0.22600
C2066       C  0.65688693  0.87018190  0.97262765    -0.22600
C2067       C  0.79365931  0.88426769  0.09864205    -0.17900
C2068       C  0.69065634  0.88449756  0.10198051    -0.17900
C2069       C  0.69057755  0.88520080  0.89847103    -0.17900
C2070       C  0.79401467  0.88443117  0.89462173    -0.17900
H2071       H  0.76967806  0.90833813  0.19812055     0.15000
H2072       H  0.71465384  0.90847966  0.19985287     0.15000
H2073       H  0.77035188  0.90837484  0.79784708     0.15000
H2074       H  0.71523890  0.90811346  0.79865999     0.15000
H2075       H  0.84335016  0.86047321  0.04892436     0.13300
H2076       H  0.84300953  0.86032134  0.93953729     0.13300
H2077       H  0.64001937  0.86236885  0.05618125     0.13300
H2078       H  0.63987563  0.86322510  0.94707582     0.13300
H2079       H  0.74214876  0.87205266  0.04722443     0.26500
H2080       H  0.74208534  0.87242860  0.94942642     0.26500
N2081       N  0.74484356  0.63424530  0.08352893    -0.36200
N2082       N  0.78837606  0.62837116  0.99604129    -0.56800
N2083       N  0.74557846  0.63397184  0.91138920    -0.36200
N2084       N  0.70177245  0.63376487  0.99941768    -0.56800
C2085       C  0.76684624  0.62492999  0.11257395     0.27400
C2086       C  0.72148816  0.62960171  0.11498068     0.27400
C2087       C  0.76849877  0.62661474  0.88040412     0.27400
C2088       C  0.72249268  0.62770311  0.88152124     0.27400
C2089       C  0.80373881  0.63415036  0.04144586     0.36000
C2090       C  0.80454743  0.63520144  0.95111375     0.36000
C2091       C  0.68639824  0.64174574  0.04499598     0.36000
C2092       C  0.68646571  0.63963453  0.95397780     0.36000
C2093       C  0.75726311  0.61379919  0.16243437    -0.21500
C2094       C  0.72868159  0.61679260  0.16392675    -0.21500
C2095       C  0.75978919  0.61526764  0.83069288    -0.21500
C2096       C  0.73094385  0.61606452  0.83118913    -0.21500
C2097       C  0.82929045  0.64518905  0.02519938    -0.22600
C2098       C  0.82999589  0.64559912  0.96812127    -0.22600
C2099       C  0.66140136  0.65289239  0.02820691    -0.22600
C2100       C  0.66157892  0.65171249  0.97094075    -0.22600
C2101       C  0.79540990  0.62850935  0.09725391    -0.17900
C2102       C  0.69403081  0.63767986  0.10155600    -0.17900
C2103       C  0.69412303  0.63334179  0.89750094    -0.17900
C2104       C  0.79703170  0.63102204  0.89496381    -0.17900
H2105       H  0.76956433  0.60457315  0.19460897     0.15000
H2106       H  0.71474894  0.60995708  0.19697765     0.15000
H2107       H  0.77286909  0.60663433  0.79800712     0.15000
H2108       H  0.71772741  0.60854095  0.79839975     0.15000
H2109       H  0.84524637  0.65318011  0.05186887     0.13300
H2110       H  0.84702343  0.65335613  0.94225406     0.13300
H2111       H  0.64490939  0.66139918  0.05438985     0.13300
H2112       H  0.64564417  0.65974745  0.94458038     0.13300
H2113       H  0.74598921  0.64591997  0.04723003     0.26500
H2114       H  0.74581427  0.64510646  0.94858434     0.26500
C2115       C  0.88636391  0.89937112  0.77805540     0.30400
C2116       C  0.85308648  0.86864248  0.71220913     0.30400
C2117       C  0.85669836  0.89290269  0.80321706    -0.05800
C2118       C  0.87933394  0.91298312  0.72119190    -0.06600
C2119       C  0.89763634  0.87048964  0.76144868    -0.06500
C2120       C  0.84009444  0.87627811  0.77034195    -0.05800
C2121       C  0.86271216  0.89670486  0.68797878    -0.06600
C2122       C  0.88063718  0.85428036  0.72864545    -0.06500
C2123       C  0.81561003  0.87068532  0.80125290    -0.31900
N2124       N  0.81602130  0.88467734  0.85075758     0.14600
C2125       C  0.84112324  0.89844026  0.85191496    -0.31900
H2126       H  0.84776874  0.91139613  0.88615123     0.16600
C2127       C  0.85869491  0.91068916  0.63861433    -0.30800
N2128       N  0.87234808  0.93557346  0.63994859     0.13400
C2129       C  0.88445149  0.93745482  0.69091604    -0.30800
C2130       C  0.89434166  0.82887191  0.72134022    -0.31100
N2131       N  0.91954865  0.82995855  0.74684694     0.13900
H2132       H  0.88671342  0.81102319  0.69840046     0.16500
C2133       C  0.92141743  0.85537580  0.77186186    -0.31100
H2134       H  0.93885078  0.86240824  0.79625772     0.16500
H2135       H  0.89627533  0.95536580  0.70486913     0.16500
H2136       H  0.79860512  0.85732746  0.78847831     0.16600
H2137       H  0.84638176  0.90328898  0.60430676     0.16500
C2138       C  0.88591007  0.61607897  0.20919662     0.30400
C2139       C  0.85093394  0.64619827  0.27451701     0.30400
C2140       C  0.87761749  0.60207667  0.26543706    -0.05800
C2141       C  0.89696232  0.64494098  0.22658859    -0.06600
C2142       C  0.85686287  0.62170126  0.18461152    -0.06500
C2143       C  0.86054488  0.61808674  0.30014620    -0.05800
C2144       C  0.87945194  0.66021392  0.26078271    -0.06600
C2145       C  0.83939279  0.63721437  0.21810866    -0.06500
C2146       C  0.85864705  0.60390419  0.35044347    -0.31900
N2147       N  0.87170734  0.57878157  0.34589764     0.14600
C2148       C  0.88314390  0.57747954  0.29366269    -0.31900
H2149       H  0.89523702  0.56010148  0.27779472     0.16600
C2150       C  0.89431573  0.68399958  0.27623821    -0.30800
N2151       N  0.92011355  0.68376055  0.25093434     0.13400
C2152       C  0.92177104  0.65980388  0.22048849    -0.30800
C2153       C  0.81463974  0.64073783  0.19038578    -0.31100
N2154       N  0.81638981  0.62767032  0.14027685     0.13900
H2155       H  0.79685022  0.65262887  0.20519717     0.16500
C2156       C  0.84186225  0.61521520  0.13712076    -0.31100
H2157       H  0.84895691  0.60259405  0.10234779     0.16500
H2158       H  0.93986218  0.65344449  0.19608698     0.16500
H2159       H  0.84857851  0.61139599  0.38814599     0.16600
H2160       H  0.88688501  0.70025229  0.30404698     0.16500
C2161       C  0.63600464  0.64973898  0.72133766     0.30400
C2162       C  0.60167920  0.61928298  0.78846664     0.30400
C2163       C  0.64820393  0.64171100  0.77790569    -0.05800
C2164       C  0.60745700  0.66361932  0.73652118    -0.06600
C2165       C  0.62595033  0.62145591  0.69644752    -0.06500
C2166       C  0.63120035  0.62576437  0.81191077    -0.05800
C2167       C  0.59039202  0.64806129  0.77169004    -0.06600
C2168       C  0.60929508  0.60525281  0.73128209    -0.06500
C2169       C  0.64703432  0.61969087  0.85863592    -0.31900
N2170       N  0.67242264  0.63278961  0.85508818     0.14600
C2171       C  0.67329993  0.64603472  0.80515058    -0.31900
H2172       H  0.69086633  0.65821127  0.78969270     0.16600
C2173       C  0.56560978  0.66258337  0.77965427    -0.30800
N2174       N  0.56663825  0.68665031  0.74984634     0.13400
C2175       C  0.59203893  0.68722459  0.72271300    -0.30800
C2176       C  0.60395796  0.58047001  0.70197918    -0.31100
N2177       N  0.61559805  0.58182646  0.64963479     0.13900
H2178       H  0.59212350  0.56278450  0.71755725     0.16500
C2179       C  0.62853897  0.60715857  0.64606505    -0.31100
H2180       H  0.63975156  0.61448202  0.60950468     0.16500
H2181       H  0.59880606  0.70355190  0.69458530     0.16500
H2182       H  0.64057072  0.60666083  0.89310270     0.16600
H2183       H  0.54793881  0.65588325  0.80501976     0.16500
C2184       C  0.63354525  0.86508043  0.28323170     0.30400
C2185       C  0.60112921  0.90024136  0.22607253     0.30400
C2186       C  0.64607234  0.87484303  0.22659765    -0.05800
C2187       C  0.60423650  0.85415682  0.26931872    -0.06600
C2188       C  0.62808421  0.89400424  0.31218833    -0.06500
C2189       C  0.62903020  0.89171596  0.19574637    -0.05800
C2190       C  0.58780910  0.87141883  0.23904035    -0.06600
C2191       C  0.61115685  0.91137083  0.28224576    -0.06500
C2192       C  0.64323927  0.89599156  0.14517849    -0.31900
N2193       N  0.66909054  0.88415818  0.14627504     0.14600
C2194       C  0.67099968  0.87160147  0.19660631    -0.31900
H2195       H  0.68895301  0.86002851  0.20991937     0.16600
C2196       C  0.56362602  0.85612579  0.22750092    -0.30800
N2197       N  0.56487213  0.83043012  0.25192423     0.13400
C2198       C  0.58972939  0.82937486  0.27780182    -0.30800
C2199       C  0.60868609  0.93657312  0.31016600    -0.31100
N2200       N  0.62365756  0.93580412  0.35720055     0.13900
H2201       H  0.59642323  0.95418617  0.29733366     0.16500
C2202       C  0.63606095  0.91000670  0.35838903    -0.31100
H2203       H  0.64971218  0.90321400  0.39078717     0.16500
H2204       H  0.59695164  0.81169357  0.30109961     0.16500
H2205       H  0.63544290  0.90731622  0.11012246     0.16600
H2206       H  0.54639349  0.86326357  0.20311449     0.16500
O2207       O  0.52105837  0.55161600  0.07398052    -0.79800
O2208       O  0.97540081  0.52978113  0.87089029    -0.79800
O2209       O  0.55134255  0.52484302  0.95360429    -0.79800
O2210       O  0.93612421  0.51936701  0.05082034    -0.79700
O2211       O  0.51361740  0.55009520  0.94175727    -0.79800
O2212       O  0.96947416  0.54901588  0.05735694    -0.79800
O2213       O  0.95071010  0.53374238  0.94884304    -0.79800
O2214       O  0.55484225  0.52186331  0.06443268    -0.78800
C2215       C  0.54592945  0.54559350  0.07962679     1.09900
C2216       C  0.95488679  0.53978687  0.89755007     1.09800
C2217       C  0.53952079  0.54633915  0.93444658     1.10000
C2218       C  0.94487786  0.54284689  0.06692249     1.09800
O2219       O  0.96593918  0.99389490  0.11458327    -0.79800
O2220       O  0.52011402  0.99767627  0.89070573    -0.79800
O2221       O  0.52740460  0.96726804  0.06138959    -0.79800
O2222       O  0.92800678  0.98320749  0.96442431    -0.79700
O2223       O  0.96861333  0.97994562  0.91908313    -0.79800
O2224       O  0.52099192  0.99748259  0.12887695    -0.79800
O2225       O  0.96426932  0.96630938  0.04174786    -0.79700
O2226       O  0.52813606  0.96746814  0.95408393    -0.79800
Co2227     Co  0.99428993  0.52300225  0.09040531     1.51500
Co2228     Co  0.99057361  0.51648000  0.93627737     1.51700
Co2229     Co  0.53858394  0.49533237  0.00835153     1.51600
Co2230     Co  0.96025360  0.49882462  0.99497823     1.51500
O2231       O  0.99948988  0.50840482  0.01396244    -1.41700
C2232       C  0.95902649  0.97086758  0.09236256     1.09900
C2233       C  0.53092647  0.97521920  0.90522887     1.10000
C2234       C  0.52943665  0.97389755  0.11117533     1.09900
C2235       C  0.94271738  0.97292799  0.92519539     1.09900
O2236       O  0.78924556  0.72458125  0.44697568    -0.79800
O2237       O  0.75625890  0.81589908  0.56103244    -0.79800
O2238       O  0.76461461  0.78107742  0.39444200    -0.79800
O2239       O  0.76284357  0.73411308  0.62665241    -0.79700
O2240       O  0.76363743  0.81503923  0.45407851    -0.79800
O2241       O  0.79106590  0.72745965  0.55639108    -0.79800
O2242       O  0.77759642  0.77982132  0.58719440    -0.79800
O2243       O  0.75645113  0.72796164  0.38604090    -0.79800
C2244       C  0.78054029  0.71989524  0.39945773     1.09900
C2245       C  0.77640904  0.80531422  0.58476573     1.09800
C2246       C  0.77285805  0.80476849  0.41002878     1.10000
C2247       C  0.78564462  0.72441393  0.60709486     1.09800
O2248       O  0.73694414  0.70150616  0.56593497    -0.79800
O2249       O  0.70893363  0.79455117  0.43449009    -0.79800
O2250       O  0.70556324  0.73246768  0.45700975    -0.79800
O2251       O  0.72288563  0.78293373  0.63093021    -0.79700
O2252       O  0.70297168  0.78804853  0.55002567    -0.79800
O2253       O  0.73420815  0.69819859  0.45525835    -0.79800
O2254       O  0.70886620  0.73657120  0.57237900    -0.79700
O2255       O  0.71321000  0.76363225  0.36648670    -0.79800
Co2256     Co  0.76271408  0.71551142  0.50550819     1.51500
Co2257     Co  0.73464632  0.79855625  0.50022059     1.51700
Co2258     Co  0.73509336  0.75733742  0.42867298     1.51600
Co2259     Co  0.74244375  0.76028646  0.57700186     1.51500
O2260       O  0.75278394  0.75695582  0.49971728    -1.41700
C2261       C  0.71392521  0.71153559  0.58238868     1.09900
C2262       C  0.70090077  0.78435080  0.38808762     1.10000
C2263       C  0.71005700  0.70729758  0.44613668     1.09900
C2264       C  0.70353909  0.79302927  0.60176889     1.09900
C2265       C  0.55469582  0.92600007  0.22131583    -0.01500
C2266       C  0.58226858  0.92120506  0.20022097     0.08200
C2267       C  0.59321204  0.93964727  0.16042355    -0.01600
C2268       C  0.57504082  0.95310667  0.12615238    -0.01600
C2269       C  0.54705011  0.95645172  0.14388443     0.08300
C2270       C  0.53713706  0.94407221  0.19296433    -0.01800
Br2271     Br  0.49940348  0.95067554  0.21908881    -0.00300
Br2272     Br  0.54175655  0.91187704  0.29233404    -0.00400
Br2273     Br  0.59015135  0.96786551  0.05729162    -0.00400
Br2274     Br  0.62922804  0.95741103  0.17039729    -0.00300
C2275       C  0.67698312  0.79949058  0.30236427    -0.01500
C2276       C  0.67836480  0.79882027  0.36054687     0.08200
C2277       C  0.65950611  0.81500308  0.39296666    -0.01600
C2278       C  0.64434506  0.83609687  0.36789124    -0.01600
C2279       C  0.64887321  0.84163643  0.31084327     0.08300
C2280       C  0.66020565  0.81941194  0.27785515    -0.01800
Br2281     Br  0.64849895  0.81129851  0.20259582    -0.00300
Br2282     Br  0.69751702  0.77388410  0.25461628    -0.00400
Br2283     Br  0.61360520  0.85230412  0.40983080    -0.00400
Br2284     Br  0.65296208  0.80773605  0.47128195    -0.00300
C2285       C  0.66375775  0.69404378  0.70000163    -0.01500
C2286       C  0.65735086  0.66591893  0.68717824     0.08200
C2287       C  0.67695949  0.65151301  0.65303554    -0.01600
C2288       C  0.69270708  0.66629287  0.61368571    -0.01600
C2289       C  0.69533775  0.69538683  0.61955371     0.08300
C2290       C  0.68446592  0.70786645  0.66857241    -0.01800
Br2291     Br  0.70417182  0.73823212  0.70340695    -0.00300
Br2292     Br  0.64948765  0.71221676  0.76672016    -0.00400
Br2293     Br  0.71290228  0.64552303  0.55756659    -0.00400
Br2294     Br  0.69107727  0.61529644  0.67390341    -0.00300
C2295       C  0.57459645  0.58394888  0.91788728    -0.01500
C2296       C  0.55513890  0.56497217  0.89670244     0.08200
C2297       C  0.54832418  0.56636137  0.83977706    -0.01600
C2298       C  0.56001739  0.58718685  0.80614024    -0.01600
C2299       C  0.58158876  0.60391775  0.82685062     0.08300
C2300       C  0.58447400  0.60557766  0.88462723    -0.01800
Br2301     Br  0.59173746  0.64095866  0.91986659    -0.00300
Br2302     Br  0.59297977  0.57774266  0.98641253    -0.00400
Br2303     Br  0.54189339  0.59654511  0.73766815    -0.00400
Br2304     Br  0.52717049  0.53795435  0.80280345    -0.00300
C2305       C  0.91356151  0.58201606  0.08025302    -0.01500
C2306       C  0.92986935  0.56126504  0.10377158     0.08200
C2307       C  0.93959962  0.56476715  0.15874441    -0.01600
C2308       C  0.92783511  0.58528966  0.19274484    -0.01600
C2309       C  0.90609615  0.60117214  0.17170981     0.08300
C2310       C  0.90438794  0.60381867  0.11389709    -0.01800
Br2311     Br  0.89875291  0.63995114  0.08160228    -0.00300
Br2312     Br  0.90616598  0.58237550  0.00196199    -0.00400
Br2313     Br  0.94526320  0.59528683  0.26203654    -0.00400
Br2314     Br  0.96990278  0.54334299  0.18789925    -0.00300
C2315       C  0.80663898  0.70934607  0.31301828    -0.01500
C2316       C  0.79642373  0.70094103  0.36492593     0.08200
C2317       C  0.80127884  0.67381136  0.38420356    -0.01600
C2318       C  0.81383252  0.65468702  0.34875417    -0.01600
C2319       C  0.83011970  0.66464977  0.30390704     0.08300
C2320       C  0.82440291  0.69169145  0.28286837    -0.01800
Br2321     Br  0.83806541  0.70454216  0.21108222    -0.00300
Br2322     Br  0.79812791  0.74566154  0.28559151    -0.00400
Br2323     Br  0.79621540  0.61832634  0.34606760    -0.00400
Br2324     Br  0.79260955  0.66209976  0.45913386    -0.00300
C2325       C  0.80552472  0.86055949  0.67444153    -0.01500
C2326       C  0.83409135  0.85406467  0.67267846     0.08200
C2327       C  0.84412787  0.83749074  0.62792173    -0.01600
C2328       C  0.82517121  0.82068468  0.59926837    -0.01600
C2329       C  0.79654418  0.82232792  0.61313907     0.08300
C2330       C  0.78683965  0.84212836  0.65151403    -0.01800
Br2331     Br  0.74921386  0.84212605  0.68031017    -0.00300
Br2332     Br  0.79212302  0.89759006  0.69169591    -0.00400
Br2333     Br  0.83826578  0.79670754  0.53997363    -0.00400
Br2334     Br  0.88120932  0.84281283  0.59630854    -0.00300
C2335       C  0.92637216  0.93293303  0.79488225    -0.01500
C2336       C  0.90605634  0.91446876  0.81586527     0.08200
C2337       C  0.90571422  0.90909991  0.87323733    -0.01600
C2338       C  0.91589887  0.92933753  0.90940235    -0.01600
C2339       C  0.93086470  0.95229232  0.88758938     0.08300
C2340       C  0.93693581  0.95351918  0.82984412    -0.01800
Br2341     Br  0.95871908  0.98300656  0.79603338    -0.00300
Br2342     Br  0.94624617  0.92440940  0.72616093    -0.00400
Br2343     Br  0.90885699  0.92499820  0.98788343    -0.00400
Br2344     Br  0.89782337  0.87216112  0.90125638    -0.00300
C2345       C  0.93333646  0.59562487  0.80406259    -0.01500
C2346       C  0.90412677  0.59304300  0.80533450     0.08200
C2347       C  0.89201357  0.56878965  0.82932239    -0.01600
C2348       C  0.90841277  0.55173066  0.86211050    -0.01600
C2349       C  0.93660267  0.55885839  0.87020781     0.08300
C2350       C  0.94861111  0.58169395  0.84288547    -0.01800
Br2351     Br  0.98552758  0.59496133  0.85858023    -0.00300
Br2352     Br  0.95321711  0.60495605  0.73632468    -0.00400
Br2353     Br  0.89207197  0.51843573  0.89328646    -0.00400
Br2354     Br  0.85500084  0.55561901  0.81032766    -0.00300
C2355       C  0.83208322  0.70321370  0.61864585    -0.01500
C2356       C  0.80378548  0.70578897  0.63715107     0.08200
C2357       C  0.79149184  0.68414352  0.66891481    -0.01600
C2358       C  0.80730633  0.66098894  0.68122675    -0.01600
C2359       C  0.83630430  0.66263491  0.67538588     0.08300
C2360       C  0.84787430  0.68073022  0.63584051    -0.01800
Br2361     Br  0.88266557  0.67164967  0.59755538    -0.00300
Br2362     Br  0.85028616  0.72949229  0.56955271    -0.00400
Br2363     Br  0.78921963  0.62505790  0.68947390    -0.00400
Br2364     Br  0.75347674  0.68419920  0.69558405    -0.00300
C2365       C  0.59469022  0.94715800  0.83345257    -0.01500
C2366       C  0.58287877  0.92271325  0.81042404     0.08200
C2367       C  0.55384630  0.92222215  0.80248122    -0.01600
C2368       C  0.53691120  0.93760320  0.83776759    -0.01600
C2369       C  0.54860412  0.95944606  0.86801778     0.08300
C2370       C  0.57745778  0.96534859  0.86330860    -0.01800
Br2371     Br  0.59469864  0.99708558  0.89781812    -0.00300
Br2372     Br  0.63277600  0.95909484  0.81657429    -0.00400
Br2373     Br  0.49862143  0.92659290  0.84658390    -0.00400
Br2374     Br  0.53801158  0.91194900  0.73216830    -0.00300
C2375       C  0.67460324  0.85903119  0.65538936    -0.01500
C2376       C  0.65361887  0.84871988  0.69150564     0.08200
C2377       C  0.65206577  0.81983707  0.70162223    -0.01600
C2378       C  0.66377708  0.80168601  0.66348184    -0.01600
C2379       C  0.68334108  0.81184429  0.62527539     0.08300
C2380       C  0.68767197  0.84065649  0.61869504    -0.01800
Br2381     Br  0.70940543  0.85561723  0.55756447    -0.00300
Br2382     Br  0.69207314  0.89502365  0.66773853    -0.00400
Br2383     Br  0.64611928  0.76612137  0.65263392    -0.00400
Br2384     Br  0.64289379  0.80483484  0.77387649    -0.00300
C2385       C  0.81597724  0.82626333  0.28694604    -0.01500
C2386       C  0.83490910  0.84496237  0.31098894     0.08200
C2387       C  0.83684778  0.84568829  0.36900453    -0.01600
C2388       C  0.81440561  0.83638787  0.40141370    -0.01600
C2389       C  0.79329875  0.82025876  0.37651246     0.08300
C2390       C  0.79350450  0.81664127  0.31865312    -0.01800
Br2391     Br  0.76017018  0.80635887  0.28060388    -0.00300
Br2392     Br  0.82383427  0.80853422  0.21604147    -0.00400
Br2393     Br  0.81069988  0.85204987  0.47488358    -0.00400
Br2394     Br  0.87236091  0.85099554  0.40404830    -0.00300
C2395       C  0.92248056  0.90462141  0.13447970    -0.01500
C2396       C  0.90163624  0.91510917  0.17075703     0.08200
C2397       C  0.89568871  0.94372530  0.16912642    -0.01600
C2398       C  0.91586996  0.96212055  0.14860788    -0.01600
C2399       C  0.94034146  0.95165580  0.12215486     0.08300
C2400       C  0.94324151  0.92266494  0.11410143    -0.01800
Br2401     Br  0.97546425  0.90719024  0.07602143    -0.00300
Br2402     Br  0.91692348  0.86941884  0.09655110    -0.00400
Br2403     Br  0.90816572  0.50117039  0.15760058    -0.00400
Br2404     Br  0.85856539  0.95766965  0.18675878    -0.00300
C2405       C  0.68184273  0.65302383  0.34566470    -0.01500
C2406       C  0.65828534  0.66719477  0.32539066     0.08200
C2407       C  0.65392207  0.69477468  0.34259840    -0.01600
C2408       C  0.66637338  0.70470694  0.39062677    -0.01600
C2409       C  0.69003119  0.69111688  0.41173329     0.08300
C2410       C  0.69741523  0.66475508  0.38878702    -0.01800
Br2411     Br  0.72766256  0.64282995  0.41620649    -0.00300
Br2412     Br  0.69485750  0.61836570  0.31204780    -0.00400
Br2413     Br  0.64863116  0.73608434  0.42659627    -0.00400
Br2414     Br  0.64519459  0.72254021  0.28836728    -0.00300
C2415       C  0.58240390  0.55486902  0.14795596    -0.01500
C2416       C  0.56313738  0.56512121  0.11031351     0.08200
C2417       C  0.56016275  0.59425806  0.10344080    -0.01600
C2418       C  0.57602287  0.61249054  0.13580367    -0.01600
C2419       C  0.59178602  0.60154403  0.17959577     0.08300
C2420       C  0.59919389  0.57320422  0.17633854    -0.01800
Br2421     Br  0.63564380  0.55969576  0.19613315    -0.00300
Br2422     Br  0.58305854  0.51682485  0.17144099    -0.00400
Br2423     Br  0.58167925  0.65021128  0.10919358    -0.00400
Br2424     Br  0.53497669  0.60979260  0.04991063    -0.00300
loop_ 
_geom_bond_atom_site_label_1 
_geom_bond_atom_site_label_2 
_geom_bond_distance 
_geom_bond_site_symmetry_2 
_ccdc_geom_bond_type 
C1            C3   1.525       .  S
C1            C5   1.562       .  S
C1            C4   1.552       .  S
C1          C601   1.501       .  S
C2            C6   1.559       .  S
C2            C8   1.561       .  S
C2            C7   1.577       .  S
C2          C588   1.522       .  S
C3           C11   1.385       .  A
C3            C6   1.369       .  A
C4           C15   1.393       .  A
C4            C7   1.396       .  A
C5           C19   1.404       .  A
C5            C8   1.378       .  A
C6            C9   1.404       .  A
C7           C13   1.403       .  A
C8           C16   1.400       .  A
C9           N10   1.374       .  A
C9           H22   1.082       .  S
N10          C11   1.355       .  A
N10         C284   1.466       .  S
C11          H12   1.083       .  S
C13          N14   1.367       .  A
C13          H23   1.079       .  S
N14          C15   1.361       .  A
N14          C44   1.471       .  S
C15          H21   1.082       .  S
C16          N17   1.367       .  A
C16          H18   1.082       .  S
N17          C19   1.369       .  A
N17         C102   1.479       .  S
C19          H20   1.082       .  S
N24          C29   1.361       .  A
N24        C1240   1.363       .  A
N24          H56   1.040       .  S
N25          C32   1.363       .  A
N25          C33   1.362       .  A
N26          C31   1.359       .  A
N26        C1242   1.357       .  A
N26          H57   1.042       .  S
N27          C34   1.358       .  A
N27          C35   1.360       .  A
C28          C36   1.386       .  A
C28          C44   1.431       .  A
C28        N1236   1.363   1_455  A
C29          C45   1.431       .  A
C29          C37   1.386       .  A
C30          C38   1.384       .  A
C30          C47   1.422       .  A
C30        N1238   1.357   1_455  A
C31          C46   1.421       .  A
C31          C39   1.385       .  A
C32          C44   1.431       .  A
C32          C40   1.384       .  A
C33          C47   1.432       .  A
C33          C41   1.384       .  A
C34          C42   1.384       .  A
C34          C45   1.424       .  A
C35          C43   1.384       .  A
C35          C46   1.423       .  A
C36        C1249   1.384   1_455  A
C36          H48   1.082       .  S
C37        C1248   1.384       .  A
C37          H49   1.081       .  S
C38        C1251   1.379   1_455  A
C38          H50   1.078       .  S
C39        C1250   1.379       .  A
C39          H51   1.082       .  S
C40          C41   1.378       .  A
C40          H52   1.081       .  S
C41          H53   1.079       .  S
C42          C43   1.375       .  A
C42          H54   1.078       .  S
C43          H55   1.082       .  S
C45         N333   1.463       .  S
C46          N74   1.461       .  S
C47         N379   1.467       .  S
C58          C60   1.560       .  S
C58          C62   1.535       .  S
C58          C61   1.560       .  S
C58         C568   1.501       .  S
C59          C63   1.545       .  S
C59          C65   1.553       .  S
C59          C64   1.563       .  S
C59         C578   1.504       .  S
C60          C68   1.401       .  A
C60          C63   1.375       .  A
C61          C72   1.400       .  A
C61          C64   1.384       .  A
C62          C76   1.385       .  A
C62          C65   1.378       .  A
C63          C66   1.394       .  A
C64          C70   1.398       .  A
C65          C73   1.395       .  A
C66          N67   1.366       .  A
C66          H79   1.082       .  S
N67          C68   1.367       .  A
N67         C249   1.474       .  S
C68          H69   1.082       .  S
C70          N71   1.366       .  A
C70          H80   1.082       .  S
N71          C72   1.365       .  A
N71         C135   1.471       .  S
C72          H78   1.082       .  S
C73          N74   1.365       .  A
C73          H75   1.081       .  S
N74          C76   1.360       .  A
C76          H77   1.082       .  S
N81          C86   1.366       .  A
N81         C691   1.367   1_545  A
N81         H113   1.040       .  S
N82          C89   1.358       .  A
N82          C90   1.358       .  A
N83          C88   1.364       .  A
N83         C693   1.364   1_545  A
N83         H114   1.041       .  S
N84          C91   1.365       .  A
N84          C92   1.365       .  A
C85          C93   1.385       .  A
C85         C101   1.439       .  A
C85         N687   1.367       .  A
C86         C102   1.440       .  A
C86          C94   1.385       .  A
C87          C95   1.385       .  A
C87         C104   1.434       .  A
C87         N689   1.364       .  A
C88         C103   1.434       .  A
C88          C96   1.387       .  A
C89         C101   1.419       .  A
C89          C97   1.383       .  A
C90         C104   1.419       .  A
C90          C98   1.384       .  A
C91          C99   1.385       .  A
C91         C102   1.436       .  A
C92         C100   1.386       .  A
C92         C103   1.437       .  A
C93         C700   1.385       .  A
C93         H105   1.082       .  S
C94         C699   1.385   1_545  A
C94         H106   1.078       .  S
C95         C702   1.382       .  A
C95         H107   1.080       .  S
C96         C701   1.382   1_545  A
C96         H108   1.082       .  S
C97          C98   1.373       .  A
C97         H109   1.079       .  S
C98         H110   1.082       .  S
C99         C100   1.379       .  A
C99         H111   1.082       .  S
C100        H112   1.082       .  S
C101        N382   1.470       .  S
C103        N359   1.476       .  S
C104        N165   1.467       .  S
N115        C120   1.364       .  A
N115        C725   1.362   1_545  A
N115        H147   1.041       .  S
N116        C123   1.362       .  A
N116        C124   1.364       .  A
N117        C122   1.358       .  A
N117        C727   1.360   1_545  A
N117        H148   1.041       .  S
N118        C125   1.359       .  A
N118        C126   1.359       .  A
C119        C127   1.384       .  A
C119        C135   1.430       .  A
C119        N721   1.362       .  A
C120        C136   1.432       .  A
C120        C128   1.386       .  A
C121        C129   1.385       .  A
C121        C138   1.422       .  A
C121        N723   1.360       .  A
C122        C137   1.423       .  A
C122        C130   1.386       .  A
C123        C135   1.431       .  A
C123        C131   1.383       .  A
C124        C138   1.434       .  A
C124        C132   1.386       .  A
C125        C133   1.386       .  A
C125        C136   1.428       .  A
C126        C134   1.384       .  A
C126        C137   1.425       .  A
C127        C734   1.381       .  A
C127        H139   1.079       .  S
C128        C733   1.381   1_545  A
C128        H140   1.082       .  S
C129        C736   1.377       .  A
C129        H141   1.082       .  S
C130        C735   1.377   1_545  A
C130        H142   1.081       .  S
C131        C132   1.381       .  A
C131        H143   1.079       .  S
C132        H144   1.082       .  S
C133        C134   1.378       .  A
C133        H145   1.082       .  S
C134        H146   1.082       .  S
C136        N329   1.468       .  S
C137        N215   1.461       .  S
C138        N310   1.468       .  S
C149        C151   1.562       .  S
C149        C153   1.536       .  S
C149        C152   1.562       .  S
C149        C548   1.490       .  S
C150        C154   1.538       .  S
C150        C156   1.559       .  S
C150        C155   1.557       .  S
C150        C558   1.488       .  S
C151        C159   1.403       .  A
C151        C154   1.374       .  A
C152        C163   1.401       .  A
C152        C155   1.380       .  A
C153        C167   1.387       .  A
C153        C156   1.371       .  A
C154        C157   1.390       .  A
C155        C161   1.395       .  A
C156        C164   1.401       .  A
C157        N158   1.362       .  A
C157        H170   1.082       .  S
N158        C159   1.373       .  A
N158        C251   1.473       .  S
C159        H160   1.082       .  S
C161        N162   1.361       .  A
C161        H171   1.082       .  S
N162        C163   1.367       .  A
N162        C193   1.467       .  S
C163        H169   1.082       .  S
C164        N165   1.370       .  A
C164        H166   1.082       .  S
N165        C167   1.357       .  A
C167        H168   1.082       .  S
N172        C177   1.361       .  A
N172        C176   1.362       .  A
N172        H204   1.042       .  S
N173        C181   1.361       .  A
N173       C1392   1.363       .  A
N174        C179   1.359       .  A
N174        C178   1.358       .  A
N174        H205   1.041       .  S
N175        C183   1.359       .  A
N175       C1394   1.359       .  A
C176        C184   1.384       .  A
C176        C192   1.426       .  A
C177        C193   1.428       .  A
C177        C185   1.383       .  A
C178        C186   1.387       .  A
C178        C195   1.425       .  A
C179        C194   1.424       .  A
C179        C187   1.386       .  A
C180        C192   1.428       .  A
C180        C188   1.383       .  A
C180       N1385   1.363   1_455  A
C181        C195   1.431       .  A
C181        C189   1.383       .  A
C182        C190   1.381       .  A
C182        C193   1.422       .  A
C182       N1387   1.359   1_455  A
C183        C191   1.386       .  A
C183        C194   1.426       .  A
C184        C185   1.382       .  A
C184        H196   1.081       .  S
C185        H197   1.078       .  S
C186        C187   1.381       .  A
C186        H198   1.082       .  S
C187        H199   1.082       .  S
C188       C1401   1.380   1_455  A
C188        H200   1.082       .  S
C189       C1400   1.380       .  A
C189        H201   1.077       .  S
C190       C1403   1.377   1_455  A
C190        H202   1.078       .  S
C191       C1402   1.377       .  A
C191        H203   1.082       .  S
C192        N356   1.470       .  S
C194        N313   1.463       .  S
C195        N219   1.466       .  S
C206        C208   1.532       .  S
C206        C210   1.556       .  S
C206        C209   1.557       .  S
C206        C541   1.492       .  S
C207        C211   1.539       .  S
C207        C213   1.556       .  S
C207        C212   1.560       .  S
C207        C528   1.498       .  S
C208        C216   1.389       .  A
C208        C211   1.369       .  A
C209        C220   1.394       .  A
C209        C212   1.386       .  A
C210        C224   1.395       .  A
C210        C213   1.381       .  A
C211        C214   1.388       .  A
C212        C218   1.396       .  A
C213        C221   1.397       .  A
C214        N215   1.364       .  A
C214        H227   1.082       .  S
N215        C216   1.363       .  A
C216        H217   1.082       .  S
C218        N219   1.363       .  A
C218        H228   1.082       .  S
N219        C220   1.363       .  A
C220        H226   1.082       .  S
C221        N222   1.367       .  A
C221        H223   1.082       .  S
N222        C224   1.360       .  A
N222        C286   1.467       .  S
C224        H225   1.081       .  S
N229        C234   1.363       .  A
N229        C233   1.364       .  A
N229        H261   1.041       .  S
N230        C237   1.364   1_556  A
N230        C238   1.363       .  A
N231        C236   1.366       .  A
N231        C235   1.366       .  A
N231        H262   1.041       .  S
N232        C239   1.362   1_556  A
N232        C240   1.362       .  A
C233        C241   1.386       .  A
C233        C249   1.434       .  A
C234        C250   1.434       .  A
C234        C242   1.387       .  A
C235        C243   1.383       .  A
C235        C252   1.438       .  A
C236        C251   1.439       .  A
C236        C244   1.386       .  A
C237        C249   1.432       .  A
C237        C245   1.386       .  A
C238        C252   1.431       .  A
C238        C246   1.382       .  A
C239        C247   1.386       .  A
C239        C250   1.429       .  A
C240        C248   1.385       .  A
C240        C251   1.427       .  A
C241        C242   1.382       .  A
C241        H253   1.082       .  S
C242        H254   1.082       .  S
C243        C244   1.384       .  A
C243        H255   1.077       .  S
C244        H256   1.082       .  S
C245        C246   1.378   1_554  A
C245        H257   1.082       .  S
C246        H258   1.078       .  S
C247        C248   1.376   1_554  A
C247        H259   1.081       .  S
C248        H260   1.082       .  S
C250        N375   1.471       .  S
C252        N306   1.478       .  S
N263        C268   1.357       .  A
N263        C267   1.357       .  A
N263        H295   1.042       .  S
N264        C271   1.358   1_556  A
N264        C272   1.359       .  A
N265        C270   1.363       .  A
N265        C269   1.363       .  A
N265        H296   1.041       .  S
N266        C273   1.364   1_556  A
N266        C274   1.362       .  A
C267        C275   1.386       .  A
C267        C283   1.420       .  A
C268        C284   1.419       .  A
C268        C276   1.384       .  A
C269        C277   1.384       .  A
C269        C286   1.433       .  A
C270        C285   1.433       .  A
C270        C278   1.386       .  A
C271        C283   1.422       .  A
C271        C279   1.381       .  A
C272        C286   1.420       .  A
C272        C280   1.384       .  A
C273        C281   1.384       .  A
C273        C284   1.433       .  A
C274        C282   1.383       .  A
C274        C285   1.433       .  A
C275        C276   1.378       .  A
C275        H287   1.082       .  S
C276        H288   1.080       .  S
C277        C278   1.383       .  A
C277        H289   1.079       .  S
C278        H290   1.082       .  S
C279        C280   1.375   1_554  A
C279        H291   1.076       .  S
C280        H292   1.082       .  S
C281        C282   1.381   1_554  A
C281        H293   1.082       .  S
C282        H294   1.078       .  S
C283        N336   1.460       .  S
C285        N352   1.473       .  S
C297        C299   1.564       .  S
C297        C301   1.538       .  S
C297        C300   1.565       .  S
C297        C518   1.505       .  S
C298        C302   1.564       .  S
C298        C304   1.553       .  S
C298        C303   1.534       .  S
C298        C508   1.498       .  S
C299        C307   1.403       .  A
C299        C302   1.381       .  A
C300        C311   1.403       .  A
C300        C303   1.377       .  A
C301        C315   1.383       .  A
C301        C304   1.380       .  A
C302        C305   1.402       .  A
C303        C309   1.386       .  A
C304        C312   1.397       .  A
C305        N306   1.366       .  A
C305        H318   1.082       .  S
N306        C307   1.369       .  A
C307        H308   1.082       .  S
C309        N310   1.358       .  A
C309        H319   1.082       .  S
N310        C311   1.371       .  A
C311        H317   1.082       .  S
C312        N313   1.368       .  A
C312        H314   1.082       .  S
N313        C315   1.360       .  A
C315        H316   1.083       .  S
C320        C322   1.559       .  S
C320        C324   1.550       .  S
C320        C323   1.538       .  S
C320        C491   1.493       .  S
C321        C325   1.562       .  S
C321        C327   1.536       .  S
C321        C326   1.550       .  S
C321        C501   1.502       .  S
C322        C330   1.395       .  A
C322        C325   1.390       .  A
C323        C334   1.388       .  A
C323        C326   1.376       .  A
C324        C338   1.397       .  A
C324        C327   1.371       .  A
C325        C328   1.394       .  A
C326        C332   1.394       .  A
C327        C335   1.386       .  A
C328        N329   1.364       .  A
C328        H341   1.081       .  S
N329        C330   1.364       .  A
C330        H331   1.082       .  S
C332        N333   1.368       .  A
C332        H342   1.082       .  S
N333        C334   1.361       .  A
C334        H340   1.082       .  S
C335        N336   1.359       .  A
C335        H337   1.082       .  S
N336        C338   1.364       .  A
C338        H339   1.081       .  S
C343        C345   1.546       .  S
C343        C347   1.557       .  S
C343        C346   1.562       .  S
C343        C468   1.513       .  S
C344        C348   1.563       .  S
C344        C350   1.567       .  S
C344        C349   1.545       .  S
C344        C481   1.512       .  S
C345        C353   1.396       .  A
C345        C348   1.375       .  A
C346        C357   1.402       .  A
C346        C349   1.384       .  A
C347        C361   1.395       .  A
C347        C350   1.385       .  A
C348        C351   1.404       .  A
C349        C355   1.391       .  A
C350        C358   1.404       .  A
C351        N352   1.367       .  A
C351        H364   1.081       .  S
N352        C353   1.364       .  A
C353        H354   1.082       .  S
C355        N356   1.363       .  A
C355        H365   1.082       .  S
N356        C357   1.370       .  A
C357        H363   1.082       .  S
C358        N359   1.370       .  A
C358        H360   1.082       .  S
N359        C361   1.363       .  A
C361        H362   1.082       .  S
C366        C368   1.553       .  S
C366        C370   1.570       .  S
C366        C369   1.539       .  S
C366        C461   1.512       .  S
C367        C371   1.566       .  S
C367        C373   1.537       .  S
C367        C372   1.549       .  S
C367        C448   1.503       .  S
C368        C376   1.393       .  A
C368        C371   1.384       .  A
C369        C380   1.387       .  A
C369        C372   1.370       .  A
C370        C384   1.407       .  A
C370        C373   1.383       .  A
C371        C374   1.399       .  A
C372        C378   1.399       .  A
C373        C381   1.384       .  A
C374        N375   1.367       .  A
C374        H387   1.081       .  S
N375        C376   1.362       .  A
C376        H377   1.082       .  S
C378        N379   1.371       .  A
C378        H388   1.082       .  S
N379        C380   1.358       .  A
C380        H386   1.082       .  S
C381        N382   1.355       .  A
C381        H383   1.083       .  S
N382        C384   1.377       .  A
C384        H385   1.082       .  S
O389        C397   1.239       .  A
O389      Co1621   1.910   1_455  S
O390        C398   1.260       .  A
O390       Co410   1.867       .  S
O391        C399   1.273       .  A
O391       Co411   2.023   1_546  S
O392        C400   1.261       .  A
O392       Co412   2.014   1_544  S
O393        C399   1.265       .  A
O393      Co1622   1.953   1_455  S
O394        C400   1.231       .  A
O394       Co409   1.917       .  S
O395        C398   1.283       .  A
O395       Co412   2.074   1_545  S
O396        C397   1.268       .  A
O396       Co411   2.016   1_545  S
C397        C598   1.453       .  S
C398        C531   1.442       .  S
C399        C478   1.469       .  S
C400        C488   1.435       .  S
O401        C414   1.269       .  A
O401      Co1015   2.021       .  S
O402        C415   1.253       .  A
O402      Co2228   1.992   1_455  S
O403        C416   1.245       .  A
O403      Co1017   1.927       .  S
O404        C417   1.267       .  A
O404      Co1018   1.875       .  S
O405        C417   1.290       .  A
O405      Co1016   2.082       .  S
O406        C416   1.272       .  A
O406      Co2227   2.020   1_455  S
O407        C414   1.258       .  A
O407      Co1018   1.942   1_554  S
O408        C415   1.241       .  A
O408      Co1017   1.935   1_556  S
Co409      O1601   1.910       .  S
Co409      O1007   2.021   1_545  S
Co409      O2224   2.020   1_545  S
Co409       O413   1.978       .  S
Co410      O1605   1.953       .  S
Co410      O2220   1.992   1_545  S
Co410      O1011   2.082   1_545  S
Co410       O413   1.970   1_556  S
Co411      O1009   1.927       .  S
Co411      O1014   1.935   1_554  S
Co411      O1625   1.982   1_465  S
Co412      O1010   1.875       .  S
Co412      O1013   1.942   1_556  S
Co412       O413   1.995   1_566  S
O413      Co1623   1.982   1_545  S
C414        C581   1.462       .  S
C415        C551   1.437       .  S
C416        C451   1.442       .  S
C417        C521   1.458       .  S
O418        C426   1.246       .  A
O418       Co438   1.929       .  S
O419        C427   1.245       .  A
O419       Co439   1.987       .  S
O420        C428   1.258       .  A
O420       Co440   1.980       .  S
O421        C429   1.271       .  A
O421       Co441   2.011       .  S
O422        C428   1.242       .  A
O422       Co439   1.930       .  S
O423        C429   1.253       .  A
O423       Co438   1.931       .  S
O424        C427   1.226       .  A
O424       Co441   1.942       .  S
O425        C426   1.269       .  A
O425       Co440   2.012       .  S
C426        C498   1.440       .  S
C427        C511   1.440       .  S
C428        C571   1.459       .  S
C429        C538   1.457       .  S
O430        C443   1.262       .  A
O430       Co438   2.006       .  S
O431        C444   1.283       .  A
O431       Co439   2.034       .  S
O432        C445   1.253       .  A
O432       Co440   1.959       .  S
O433        C446   1.275       .  A
O433       Co441   1.922       .  S
O434        C446   1.269       .  A
O434       Co439   1.980       .  S
O435        C445   1.264       .  A
O435       Co438   2.016       .  S
O436        C443   1.252       .  A
O436       Co441   1.969       .  S
O437        C444   1.263       .  A
O437       Co440   1.874       .  S
Co438       O442   2.053       .  S
Co439       O442   2.181       .  S
Co440       O442   1.926       .  S
Co441       O442   1.923       .  S
C443        C471   1.470       .  S
C444        C458   1.461       .  S
C445        C591   1.492       .  S
C446        C561   1.434       .  S
C447        C448   1.426       .  A
C447        C452   1.402       .  A
C447       Br454   1.933       .  S
C448        C449   1.400       .  A
C449        C450   1.379       .  A
C449       Br456   1.939       .  S
C450        C451   1.410       .  A
C450       Br455   1.933       .  S
C451        C452   1.399       .  A
C452       Br453   1.931   1_455  S
C457        C458   1.406       .  A
C457        C462   1.395       .  A
C457       Br464   1.938       .  S
C458        C459   1.415       .  A
C459        C460   1.397       .  A
C459       Br466   1.940       .  S
C460        C461   1.414       .  A
C460       Br465   1.934       .  S
C461        C462   1.429       .  A
C462       Br463   1.946       .  S
C467        C468   1.415       .  A
C467        C472   1.401       .  A
C467       Br474   1.939       .  S
C468        C469   1.417       .  A
C469        C470   1.394       .  A
C469       Br476   1.941       .  S
C470        C471   1.407       .  A
C470       Br475   1.924       .  S
C471        C472   1.413       .  A
C472       Br473   1.928       .  S
C477        C478   1.401       .  A
C477        C482   1.389       .  A
C477       Br484   1.913       .  S
C478        C479   1.419       .  A
C479        C480   1.397       .  A
C479       Br486   1.919       .  S
C480        C481   1.403       .  A
C480       Br485   1.937       .  S
C481        C482   1.404       .  A
C482       Br483   1.926       .  S
C487        C488   1.399       .  A
C487        C492   1.388       .  A
C487       Br494   1.927       .  S
C488        C489   1.422       .  A
C489        C490   1.392       .  A
C489       Br496   1.931       .  S
C490        C491   1.400       .  A
C490       Br495   1.939       .  S
C491        C492   1.404       .  A
C492       Br493   1.927       .  S
C497        C498   1.395       .  A
C497        C502   1.395       .  A
C497       Br504   1.916       .  S
C498        C499   1.406       .  A
C499        C500   1.382       .  A
C499       Br506   1.930       .  S
C500        C501   1.404       .  A
C500       Br505   1.934       .  S
C501        C502   1.425       .  A
C502       Br503   1.939       .  S
C507        C508   1.406       .  A
C507        C512   1.376       .  A
C507       Br514   1.933       .  S
C508        C509   1.414       .  A
C509        C510   1.401       .  A
C509       Br516   1.935       .  S
C510        C511   1.408       .  A
C510       Br515   1.927       .  S
C511        C512   1.397       .  A
C512       Br513   1.919       .  S
C517        C518   1.400       .  A
C517        C522   1.394       .  A
C517       Br524   1.936       .  S
C518        C519   1.408       .  A
C519        C520   1.393       .  A
C519       Br526   1.932       .  S
C520        C521   1.408       .  A
C520       Br525   1.926       .  S
C521        C522   1.417       .  A
C522       Br523   1.927       .  S
C527        C528   1.405       .  A
C527        C532   1.378       .  A
C527       Br534   1.927       .  S
C528        C529   1.417       .  A
C529        C530   1.398       .  A
C529       Br536   1.942       .  S
C530        C531   1.409       .  A
C530       Br535   1.923       .  S
C531        C532   1.396       .  A
C532       Br533   1.921       .  S
C537        C538   1.425       .  A
C537        C542   1.392       .  A
C537       Br544   1.926       .  S
C538        C539   1.412       .  A
C539        C540   1.386       .  A
C539       Br546   1.920       .  S
C540        C541   1.396       .  A
C540       Br545   1.933       .  S
C541        C542   1.396       .  A
C542       Br543   1.940       .  S
C547        C548   1.414       .  A
C547        C552   1.393       .  A
C547       Br554   1.945       .  S
C548        C549   1.409       .  A
C549        C550   1.378       .  A
C549       Br556   1.931       .  S
C550        C551   1.394       .  A
C550       Br555   1.914   1_455  S
C551        C552   1.412       .  A
C552       Br553   1.920       .  S
C557        C558   1.406       .  A
C557        C562   1.388       .  A
C557       Br564   1.937       .  S
C558        C559   1.409       .  A
C559        C560   1.376       .  A
C559       Br566   1.929       .  S
C560        C561   1.388       .  A
C560       Br565   1.918       .  S
C561        C562   1.405       .  A
C562       Br563   1.926       .  S
C567        C568   1.403       .  A
C567        C572   1.386       .  A
C567       Br574   1.935       .  S
C568        C569   1.403       .  A
C569        C570   1.389       .  A
C569       Br576   1.931       .  S
C570        C571   1.411       .  A
C570       Br575   1.925       .  S
C571        C572   1.404       .  A
C572       Br573   1.919       .  S
C577        C578   1.408       .  A
C577        C582   1.398       .  A
C577       Br584   1.934       .  S
C578        C579   1.404       .  A
C579        C580   1.390       .  A
C579       Br586   1.943       .  S
C580        C581   1.417       .  A
C580      Br1191   1.921       .  S
C581        C582   1.410       .  A
C582       Br583   1.931       .  S
Br585      C1186   1.921   1_545  S
C587        C588   1.419       .  A
C587        C592   1.405       .  A
C587       Br594   1.946       .  S
C588        C589   1.400       .  A
C589        C590   1.393       .  A
C589       Br596   1.925       .  S
C590        C591   1.417       .  A
C590       Br595   1.926       .  S
C591        C592   1.421       .  A
C592       Br593   1.927       .  S
C597        C598   1.401       .  A
C597        C602   1.377       .  A
C597       Br604   1.914       .  S
C598        C599   1.416       .  A
C599        C600   1.399       .  A
C599       Br606   1.940       .  S
C600        C601   1.416       .  A
C600       Br605   1.938       .  S
C601        C602   1.408       .  A
C602       Br603   1.937       .  S
C607        C609   1.525       .  S
C607        C611   1.562       .  S
C607        C610   1.552       .  S
C607       C1207   1.501       .  S
C608        C612   1.559       .  S
C608        C614   1.561       .  S
C608        C613   1.577       .  S
C608       C1194   1.522       .  S
C609        C617   1.385       .  A
C609        C612   1.369       .  A
C610        C621   1.393       .  A
C610        C613   1.396       .  A
C611        C625   1.404       .  A
C611        C614   1.378       .  A
C612        C615   1.404       .  A
C613        C619   1.403       .  A
C614        C622   1.400       .  A
C615        N616   1.374       .  A
C615        H628   1.082       .  S
N616        C617   1.355       .  A
N616        C890   1.466       .  S
C617        H618   1.083       .  S
C619        N620   1.367       .  A
C619        H629   1.079       .  S
N620        C621   1.361       .  A
N620        C650   1.471       .  S
C621        H627   1.082       .  S
C622        N623   1.367       .  A
C622        H624   1.082       .  S
N623        C625   1.369       .  A
N623        C708   1.479       .  S
C625        H626   1.082       .  S
N630        C635   1.361       .  A
N630       C1846   1.363       .  A
N630        H662   1.040       .  S
N631        C638   1.363       .  A
N631        C639   1.362       .  A
N632        C637   1.359       .  A
N632       C1848   1.357       .  A
N632        H663   1.042       .  S
N633        C640   1.358       .  A
N633        C641   1.360       .  A
C634        C642   1.386       .  A
C634        C650   1.431       .  A
C634       N1842   1.363   1_455  A
C635        C651   1.431       .  A
C635        C643   1.386       .  A
C636        C644   1.384       .  A
C636        C653   1.422       .  A
C636       N1844   1.357   1_455  A
C637        C652   1.421       .  A
C637        C645   1.385       .  A
C638        C650   1.431       .  A
C638        C646   1.384       .  A
C639        C653   1.432       .  A
C639        C647   1.384       .  A
C640        C648   1.384       .  A
C640        C651   1.424       .  A
C641        C649   1.384       .  A
C641        C652   1.423       .  A
C642       C1855   1.384   1_455  A
C642        H654   1.082       .  S
C643       C1854   1.384       .  A
C643        H655   1.081       .  S
C644       C1857   1.379   1_455  A
C644        H656   1.078       .  S
C645       C1856   1.379       .  A
C645        H657   1.082       .  S
C646        C647   1.378       .  A
C646        H658   1.081       .  S
C647        H659   1.079       .  S
C648        C649   1.375       .  A
C648        H660   1.078       .  S
C649        H661   1.082       .  S
C651        N939   1.463       .  S
C652        N680   1.461       .  S
C653        N985   1.467       .  S
C664        C666   1.560       .  S
C664        C668   1.535       .  S
C664        C667   1.560       .  S
C664       C1174   1.501       .  S
C665        C669   1.545       .  S
C665        C671   1.553       .  S
C665        C670   1.563       .  S
C665       C1184   1.504       .  S
C666        C674   1.401       .  A
C666        C669   1.375       .  A
C667        C678   1.400       .  A
C667        C670   1.384       .  A
C668        C682   1.385       .  A
C668        C671   1.378       .  A
C669        C672   1.394       .  A
C670        C676   1.398       .  A
C671        C679   1.395       .  A
C672        N673   1.366       .  A
C672        H685   1.082       .  S
N673        C674   1.367       .  A
N673        C855   1.474       .  S
C674        H675   1.082       .  S
C676        N677   1.366       .  A
C676        H686   1.082       .  S
N677        C678   1.365       .  A
N677        C741   1.471       .  S
C678        H684   1.082       .  S
C679        N680   1.365       .  A
C679        H681   1.081       .  S
N680        C682   1.360       .  A
C682        H683   1.082       .  S
N687        C692   1.366       .  A
N687        H719   1.040       .  S
N688        C695   1.358       .  A
N688        C696   1.358       .  A
N689        C694   1.364       .  A
N689        H720   1.041       .  S
N690        C697   1.365       .  A
N690        C698   1.365       .  A
C691        C699   1.385       .  A
C691        C707   1.439       .  A
C692        C708   1.440       .  A
C692        C700   1.385       .  A
C693        C701   1.385       .  A
C693        C710   1.434       .  A
C694        C709   1.434       .  A
C694        C702   1.387       .  A
C695        C707   1.419       .  A
C695        C703   1.383       .  A
C696        C710   1.419       .  A
C696        C704   1.384       .  A
C697        C705   1.385       .  A
C697        C708   1.436       .  A
C698        C706   1.386       .  A
C698        C709   1.437       .  A
C699        H711   1.082       .  S
C700        H712   1.078       .  S
C701        H713   1.080       .  S
C702        H714   1.082       .  S
C703        C704   1.373       .  A
C703        H715   1.079       .  S
C704        H716   1.082       .  S
C705        C706   1.379       .  A
C705        H717   1.082       .  S
C706        H718   1.082       .  S
C707        N988   1.470       .  S
C709        N965   1.476       .  S
C710        N771   1.467       .  S
N721        C726   1.364       .  A
N721        H753   1.041       .  S
N722        C729   1.362       .  A
N722        C730   1.364       .  A
N723        C728   1.358       .  A
N723        H754   1.041       .  S
N724        C731   1.359       .  A
N724        C732   1.359       .  A
C725        C733   1.384       .  A
C725        C741   1.430       .  A
C726        C742   1.432       .  A
C726        C734   1.386       .  A
C727        C735   1.385       .  A
C727        C744   1.422       .  A
C728        C743   1.423       .  A
C728        C736   1.386       .  A
C729        C741   1.431       .  A
C729        C737   1.383       .  A
C730        C744   1.434       .  A
C730        C738   1.386       .  A
C731        C739   1.386       .  A
C731        C742   1.428       .  A
C732        C740   1.384       .  A
C732        C743   1.425       .  A
C733        H745   1.079       .  S
C734        H746   1.082       .  S
C735        H747   1.082       .  S
C736        H748   1.081       .  S
C737        C738   1.381       .  A
C737        H749   1.079       .  S
C738        H750   1.082       .  S
C739        C740   1.378       .  A
C739        H751   1.082       .  S
C740        H752   1.082       .  S
C742        N935   1.468       .  S
C743        N821   1.461       .  S
C744        N916   1.468       .  S
C755        C757   1.562       .  S
C755        C759   1.536       .  S
C755        C758   1.562       .  S
C755       C1154   1.490       .  S
C756        C760   1.538       .  S
C756        C762   1.559       .  S
C756        C761   1.557       .  S
C756       C1164   1.488       .  S
C757        C765   1.403       .  A
C757        C760   1.374       .  A
C758        C769   1.401       .  A
C758        C761   1.380       .  A
C759        C773   1.387       .  A
C759        C762   1.371       .  A
C760        C763   1.390       .  A
C761        C767   1.395       .  A
C762        C770   1.401       .  A
C763        N764   1.362       .  A
C763        H776   1.082       .  S
N764        C765   1.373       .  A
N764        C857   1.473       .  S
C765        H766   1.082       .  S
C767        N768   1.361       .  A
C767        H777   1.082       .  S
N768        C769   1.367       .  A
N768        C799   1.467       .  S
C769        H775   1.082       .  S
C770        N771   1.370       .  A
C770        H772   1.082       .  S
N771        C773   1.357       .  A
C773        H774   1.082       .  S
N778        C783   1.361       .  A
N778        C782   1.362       .  A
N778        H810   1.042       .  S
N779       C1998   1.363       .  A
N779        C787   1.361       .  A
N780        C785   1.359       .  A
N780        C784   1.358       .  A
N780        H811   1.041       .  S
N781       C2000   1.359       .  A
N781        C789   1.359       .  A
C782        C790   1.384       .  A
C782        C798   1.426       .  A
C783        C799   1.428       .  A
C783        C791   1.383       .  A
C784        C792   1.387       .  A
C784        C801   1.425       .  A
C785        C800   1.424       .  A
C785        C793   1.386       .  A
C786        C798   1.428       .  A
C786        C794   1.383       .  A
C786       N1991   1.363   1_455  A
C787        C801   1.431       .  A
C787        C795   1.383       .  A
C788        C796   1.381       .  A
C788        C799   1.422       .  A
C788       N1993   1.359   1_455  A
C789        C797   1.386       .  A
C789        C800   1.426       .  A
C790        C791   1.382       .  A
C790        H802   1.081       .  S
C791        H803   1.078       .  S
C792        C793   1.381       .  A
C792        H804   1.082       .  S
C793        H805   1.082       .  S
C794       C2007   1.380   1_455  A
C794        H806   1.082       .  S
C795       C2006   1.380       .  A
C795        H807   1.077       .  S
C796       C2009   1.377   1_455  A
C796        H808   1.078       .  S
C797       C2008   1.377       .  A
C797        H809   1.082       .  S
C798        N962   1.470       .  S
C800        N919   1.463       .  S
C801        N825   1.466       .  S
C812        C814   1.532       .  S
C812        C816   1.556       .  S
C812        C815   1.557       .  S
C812       C1147   1.492       .  S
C813        C817   1.539       .  S
C813        C819   1.556       .  S
C813        C818   1.560       .  S
C813       C1134   1.498       .  S
C814        C822   1.389       .  A
C814        C817   1.369       .  A
C815        C826   1.394       .  A
C815        C818   1.386       .  A
C816        C830   1.395       .  A
C816        C819   1.381       .  A
C817        C820   1.388       .  A
C818        C824   1.396       .  A
C819        C827   1.397       .  A
C820        N821   1.364       .  A
C820        H833   1.082       .  S
N821        C822   1.363       .  A
C822        H823   1.082       .  S
C824        N825   1.363       .  A
C824        H834   1.082       .  S
N825        C826   1.363       .  A
C826        H832   1.082       .  S
C827        N828   1.367       .  A
C827        H829   1.082       .  S
N828        C830   1.360       .  A
N828        C892   1.467       .  S
C830        H831   1.081       .  S
N835        C840   1.363       .  A
N835        C839   1.364       .  A
N835        H867   1.041       .  S
N836        C843   1.364   1_556  A
N836        C844   1.363       .  A
N837        C842   1.366       .  A
N837        C841   1.366       .  A
N837        H868   1.041       .  S
N838        C845   1.362   1_556  A
N838        C846   1.362       .  A
C839        C847   1.386       .  A
C839        C855   1.434       .  A
C840        C856   1.434       .  A
C840        C848   1.387       .  A
C841        C849   1.383       .  A
C841        C858   1.438       .  A
C842        C857   1.439       .  A
C842        C850   1.386       .  A
C843        C855   1.432       .  A
C843        C851   1.386       .  A
C844        C858   1.431       .  A
C844        C852   1.382       .  A
C845        C853   1.386       .  A
C845        C856   1.429       .  A
C846        C854   1.385       .  A
C846        C857   1.427       .  A
C847        C848   1.382       .  A
C847        H859   1.082       .  S
C848        H860   1.082       .  S
C849        C850   1.384       .  A
C849        H861   1.077       .  S
C850        H862   1.082       .  S
C851        C852   1.378   1_554  A
C851        H863   1.082       .  S
C852        H864   1.078       .  S
C853        C854   1.376   1_554  A
C853        H865   1.081       .  S
C854        H866   1.082       .  S
C856        N981   1.471       .  S
C858        N912   1.478       .  S
N869        C874   1.357       .  A
N869        C873   1.357       .  A
N869        H901   1.042       .  S
N870        C877   1.358   1_556  A
N870        C878   1.359       .  A
N871        C876   1.363       .  A
N871        C875   1.363       .  A
N871        H902   1.041       .  S
N872        C879   1.364   1_556  A
N872        C880   1.362       .  A
C873        C881   1.386       .  A
C873        C889   1.420       .  A
C874        C890   1.419       .  A
C874        C882   1.384       .  A
C875        C883   1.384       .  A
C875        C892   1.433       .  A
C876        C891   1.433       .  A
C876        C884   1.386       .  A
C877        C889   1.422       .  A
C877        C885   1.381       .  A
C878        C892   1.420       .  A
C878        C886   1.384       .  A
C879        C887   1.384       .  A
C879        C890   1.433       .  A
C880        C888   1.383       .  A
C880        C891   1.433       .  A
C881        C882   1.378       .  A
C881        H893   1.082       .  S
C882        H894   1.080       .  S
C883        C884   1.383       .  A
C883        H895   1.079       .  S
C884        H896   1.082       .  S
C885        C886   1.375   1_554  A
C885        H897   1.076       .  S
C886        H898   1.082       .  S
C887        C888   1.381   1_554  A
C887        H899   1.082       .  S
C888        H900   1.078       .  S
C889        N942   1.460       .  S
C891        N958   1.473       .  S
C903        C905   1.564       .  S
C903        C907   1.538       .  S
C903        C906   1.565       .  S
C903       C1124   1.505       .  S
C904        C908   1.564       .  S
C904        C910   1.553       .  S
C904        C909   1.534       .  S
C904       C1114   1.498       .  S
C905        C913   1.403       .  A
C905        C908   1.381       .  A
C906        C917   1.403       .  A
C906        C909   1.377       .  A
C907        C921   1.383       .  A
C907        C910   1.380       .  A
C908        C911   1.402       .  A
C909        C915   1.386       .  A
C910        C918   1.397       .  A
C911        N912   1.366       .  A
C911        H924   1.082       .  S
N912        C913   1.369       .  A
C913        H914   1.082       .  S
C915        N916   1.358       .  A
C915        H925   1.082       .  S
N916        C917   1.371       .  A
C917        H923   1.082       .  S
C918        N919   1.368       .  A
C918        H920   1.082       .  S
N919        C921   1.360       .  A
C921        H922   1.083       .  S
C926        C928   1.559       .  S
C926        C930   1.550       .  S
C926        C929   1.538       .  S
C926       C1097   1.493       .  S
C927        C931   1.562       .  S
C927        C933   1.536       .  S
C927        C932   1.550       .  S
C927       C1107   1.502       .  S
C928        C936   1.395       .  A
C928        C931   1.390       .  A
C929        C940   1.388       .  A
C929        C932   1.376       .  A
C930        C944   1.397       .  A
C930        C933   1.371       .  A
C931        C934   1.394       .  A
C932        C938   1.394       .  A
C933        C941   1.386       .  A
C934        N935   1.364       .  A
C934        H947   1.081       .  S
N935        C936   1.364       .  A
C936        H937   1.082       .  S
C938        N939   1.368       .  A
C938        H948   1.082       .  S
N939        C940   1.361       .  A
C940        H946   1.082       .  S
C941        N942   1.359       .  A
C941        H943   1.082       .  S
N942        C944   1.364       .  A
C944        H945   1.081       .  S
C949        C951   1.546       .  S
C949        C953   1.557       .  S
C949        C952   1.562       .  S
C949       C1074   1.513       .  S
C950        C954   1.563       .  S
C950        C956   1.567       .  S
C950        C955   1.545       .  S
C950       C1087   1.512       .  S
C951        C959   1.396       .  A
C951        C954   1.375       .  A
C952        C963   1.402       .  A
C952        C955   1.384       .  A
C953        C967   1.395       .  A
C953        C956   1.385       .  A
C954        C957   1.404       .  A
C955        C961   1.391       .  A
C956        C964   1.404       .  A
C957        N958   1.367       .  A
C957        H970   1.081       .  S
N958        C959   1.364       .  A
C959        H960   1.082       .  S
C961        N962   1.363       .  A
C961        H971   1.082       .  S
N962        C963   1.370       .  A
C963        H969   1.082       .  S
C964        N965   1.370       .  A
C964        H966   1.082       .  S
N965        C967   1.363       .  A
C967        H968   1.082       .  S
C972        C974   1.553       .  S
C972        C976   1.570       .  S
C972        C975   1.539       .  S
C972       C1067   1.512       .  S
C973        C977   1.566       .  S
C973        C979   1.537       .  S
C973        C978   1.549       .  S
C973       C1054   1.503       .  S
C974        C982   1.393       .  A
C974        C977   1.384       .  A
C975        C986   1.387       .  A
C975        C978   1.370       .  A
C976        C990   1.407       .  A
C976        C979   1.383       .  A
C977        C980   1.399       .  A
C978        C984   1.399       .  A
C979        C987   1.384       .  A
C980        N981   1.367       .  A
C980        H993   1.081       .  S
N981        C982   1.362       .  A
C982        H983   1.082       .  S
C984        N985   1.371       .  A
C984        H994   1.082       .  S
N985        C986   1.358       .  A
C986        H992   1.082       .  S
C987        N988   1.355       .  A
C987        H989   1.083       .  S
N988        C990   1.377       .  A
C990        H991   1.082       .  S
O995       C1003   1.239       .  A
O995      Co2227   1.910   1_455  S
O996       C1004   1.260       .  A
O996      Co1016   1.867       .  S
O997       C1005   1.273       .  A
O997      Co1017   2.023   1_556  S
O998       C1006   1.261       .  A
O998      Co1018   2.014   1_554  S
O999       C1005   1.265       .  A
O999      Co2228   1.953   1_455  S
O1000      C1006   1.231       .  A
O1000     Co1015   1.917       .  S
O1001      C1004   1.283       .  A
O1001     Co1018   2.074       .  S
O1002      C1003   1.268       .  A
O1002     Co1017   2.016       .  S
C1003      C1204   1.453       .  S
C1004      C1137   1.442       .  S
C1005      C1084   1.469       .  S
C1006      C1094   1.435       .  S
O1007      C1020   1.269       .  A
O1008      C1021   1.253       .  A
O1008     Co1622   1.992   1_465  S
O1009      C1022   1.245       .  A
O1010      C1023   1.267       .  A
O1011      C1023   1.290       .  A
O1012      C1022   1.272       .  A
O1012     Co1621   2.020   1_465  S
O1013      C1020   1.258       .  A
O1014      C1021   1.241       .  A
Co1015     O2207   1.910       .  S
Co1015     O1618   2.020       .  S
Co1015     O1019   1.978       .  S
Co1016     O2211   1.953       .  S
Co1016     O1614   1.992       .  S
Co1016     O1019   1.970   1_556  S
Co1017     O2231   1.982   1_455  S
Co1018     O1019   1.995   1_556  S
O1019     Co2229   1.982       .  S
C1020      C1187   1.462       .  S
C1021      C1157   1.437       .  S
C1022      C1057   1.442       .  S
C1023      C1127   1.458       .  S
O1024      C1032   1.246       .  A
O1024     Co1044   1.929       .  S
O1025      C1033   1.245       .  A
O1025     Co1045   1.987       .  S
O1026      C1034   1.258       .  A
O1026     Co1046   1.980       .  S
O1027      C1035   1.271       .  A
O1027     Co1047   2.011       .  S
O1028      C1034   1.242       .  A
O1028     Co1045   1.930       .  S
O1029      C1035   1.253       .  A
O1029     Co1044   1.931       .  S
O1030      C1033   1.226       .  A
O1030     Co1047   1.942       .  S
O1031      C1032   1.269       .  A
O1031     Co1046   2.012       .  S
C1032      C1104   1.440       .  S
C1033      C1117   1.440       .  S
C1034      C1177   1.459       .  S
C1035      C1144   1.457       .  S
O1036      C1049   1.262       .  A
O1036     Co1044   2.006       .  S
O1037      C1050   1.283       .  A
O1037     Co1045   2.034       .  S
O1038      C1051   1.253       .  A
O1038     Co1046   1.959       .  S
O1039      C1052   1.275       .  A
O1039     Co1047   1.922       .  S
O1040      C1052   1.269       .  A
O1040     Co1045   1.980       .  S
O1041      C1051   1.264       .  A
O1041     Co1044   2.016       .  S
O1042      C1049   1.252       .  A
O1042     Co1047   1.969       .  S
O1043      C1050   1.263       .  A
O1043     Co1046   1.874       .  S
Co1044     O1048   2.053       .  S
Co1045     O1048   2.181       .  S
Co1046     O1048   1.926       .  S
Co1047     O1048   1.923       .  S
C1049      C1077   1.470       .  S
C1050      C1064   1.461       .  S
C1051      C1197   1.492       .  S
C1052      C1167   1.434       .  S
C1053      C1054   1.426       .  A
C1053      C1058   1.402       .  A
C1053     Br1060   1.933       .  S
C1054      C1055   1.400       .  A
C1055      C1056   1.379       .  A
C1055     Br1062   1.939       .  S
C1056      C1057   1.410       .  A
C1056     Br1061   1.933       .  S
C1057      C1058   1.399       .  A
C1058     Br1059   1.931   1_455  S
C1063      C1064   1.406       .  A
C1063      C1068   1.395       .  A
C1063     Br1070   1.938       .  S
C1064      C1065   1.415       .  A
C1065      C1066   1.397       .  A
C1065     Br1072   1.940       .  S
C1066      C1067   1.414       .  A
C1066     Br1071   1.934       .  S
C1067      C1068   1.429       .  A
C1068     Br1069   1.946       .  S
C1073      C1074   1.415       .  A
C1073      C1078   1.401       .  A
C1073     Br1080   1.939       .  S
C1074      C1075   1.417       .  A
C1075      C1076   1.394       .  A
C1075     Br1082   1.941       .  S
C1076      C1077   1.407       .  A
C1076     Br1081   1.924       .  S
C1077      C1078   1.413       .  A
C1078     Br1079   1.928       .  S
C1083      C1084   1.401       .  A
C1083      C1088   1.389       .  A
C1083     Br1090   1.913       .  S
C1084      C1085   1.419       .  A
C1085      C1086   1.397       .  A
C1085     Br1092   1.919       .  S
C1086      C1087   1.403       .  A
C1086     Br1091   1.937       .  S
C1087      C1088   1.404       .  A
C1088     Br1089   1.926       .  S
C1093      C1094   1.399       .  A
C1093      C1098   1.388       .  A
C1093     Br1100   1.927       .  S
C1094      C1095   1.422       .  A
C1095      C1096   1.392       .  A
C1095     Br1102   1.931       .  S
C1096      C1097   1.400       .  A
C1096     Br1101   1.939       .  S
C1097      C1098   1.404       .  A
C1098     Br1099   1.927       .  S
C1103      C1104   1.395       .  A
C1103      C1108   1.395       .  A
C1103     Br1110   1.916       .  S
C1104      C1105   1.406       .  A
C1105      C1106   1.382       .  A
C1105     Br1112   1.930       .  S
C1106      C1107   1.404       .  A
C1106     Br1111   1.934       .  S
C1107      C1108   1.425       .  A
C1108     Br1109   1.939       .  S
C1113      C1114   1.406       .  A
C1113      C1118   1.376       .  A
C1113     Br1120   1.933       .  S
C1114      C1115   1.414       .  A
C1115      C1116   1.401       .  A
C1115     Br1122   1.935       .  S
C1116      C1117   1.408       .  A
C1116     Br1121   1.927       .  S
C1117      C1118   1.397       .  A
C1118     Br1119   1.919       .  S
C1123      C1124   1.400       .  A
C1123      C1128   1.394       .  A
C1123     Br1130   1.936       .  S
C1124      C1125   1.408       .  A
C1125      C1126   1.393       .  A
C1125     Br1132   1.932       .  S
C1126      C1127   1.408       .  A
C1126     Br1131   1.926       .  S
C1127      C1128   1.417       .  A
C1128     Br1129   1.927       .  S
C1133      C1134   1.405       .  A
C1133      C1138   1.378       .  A
C1133     Br1140   1.927       .  S
C1134      C1135   1.417       .  A
C1135      C1136   1.398       .  A
C1135     Br1142   1.942       .  S
C1136      C1137   1.409       .  A
C1136     Br1141   1.923       .  S
C1137      C1138   1.396       .  A
C1138     Br1139   1.921       .  S
C1143      C1144   1.425       .  A
C1143      C1148   1.392       .  A
C1143     Br1150   1.926       .  S
C1144      C1145   1.412       .  A
C1145      C1146   1.386       .  A
C1145     Br1152   1.920       .  S
C1146      C1147   1.396       .  A
C1146     Br1151   1.933       .  S
C1147      C1148   1.396       .  A
C1148     Br1149   1.940       .  S
C1153      C1154   1.414       .  A
C1153      C1158   1.393       .  A
C1153     Br1160   1.945       .  S
C1154      C1155   1.409       .  A
C1155      C1156   1.378       .  A
C1155     Br1162   1.931       .  S
C1156      C1157   1.394       .  A
C1156     Br1161   1.914   1_455  S
C1157      C1158   1.412       .  A
C1158     Br1159   1.920       .  S
C1163      C1164   1.406       .  A
C1163      C1168   1.388       .  A
C1163     Br1170   1.937       .  S
C1164      C1165   1.409       .  A
C1165      C1166   1.376       .  A
C1165     Br1172   1.929       .  S
C1166      C1167   1.388       .  A
C1166     Br1171   1.918       .  S
C1167      C1168   1.405       .  A
C1168     Br1169   1.926       .  S
C1173      C1174   1.403       .  A
C1173      C1178   1.386       .  A
C1173     Br1180   1.935       .  S
C1174      C1175   1.403       .  A
C1175      C1176   1.389       .  A
C1175     Br1182   1.931       .  S
C1176      C1177   1.411       .  A
C1176     Br1181   1.925       .  S
C1177      C1178   1.404       .  A
C1178     Br1179   1.919       .  S
C1183      C1184   1.408       .  A
C1183      C1188   1.398       .  A
C1183     Br1190   1.934       .  S
C1184      C1185   1.404       .  A
C1185      C1186   1.390       .  A
C1185     Br1192   1.943       .  S
C1186      C1187   1.417       .  A
C1187      C1188   1.410       .  A
C1188     Br1189   1.931       .  S
C1193      C1194   1.419       .  A
C1193      C1198   1.405       .  A
C1193     Br1200   1.946       .  S
C1194      C1195   1.400       .  A
C1195      C1196   1.393       .  A
C1195     Br1202   1.925       .  S
C1196      C1197   1.417       .  A
C1196     Br1201   1.926       .  S
C1197      C1198   1.421       .  A
C1198     Br1199   1.927       .  S
C1203      C1204   1.401       .  A
C1203      C1208   1.377       .  A
C1203     Br1210   1.914       .  S
C1204      C1205   1.416       .  A
C1205      C1206   1.399       .  A
C1205     Br1212   1.940       .  S
C1206      C1207   1.416       .  A
C1206     Br1211   1.938       .  S
C1207      C1208   1.408       .  A
C1208     Br1209   1.937       .  S
C1213      C1215   1.525       .  S
C1213      C1217   1.562       .  S
C1213      C1216   1.552       .  S
C1213      C1813   1.501       .  S
C1214      C1218   1.559       .  S
C1214      C1220   1.561       .  S
C1214      C1219   1.577       .  S
C1214      C1800   1.522       .  S
C1215      C1223   1.385       .  A
C1215      C1218   1.369       .  A
C1216      C1227   1.393       .  A
C1216      C1219   1.396       .  A
C1217      C1231   1.404       .  A
C1217      C1220   1.378       .  A
C1218      C1221   1.404       .  A
C1219      C1225   1.403       .  A
C1220      C1228   1.400       .  A
C1221      N1222   1.374       .  A
C1221      H1234   1.082       .  S
N1222      C1223   1.355       .  A
N1222      C1496   1.466       .  S
C1223      H1224   1.083       .  S
C1225      N1226   1.367       .  A
C1225      H1235   1.079       .  S
N1226      C1227   1.361       .  A
N1226      C1256   1.471       .  S
C1227      H1233   1.082       .  S
C1228      N1229   1.367       .  A
C1228      H1230   1.082       .  S
N1229      C1231   1.369       .  A
N1229      C1314   1.479       .  S
C1231      H1232   1.082       .  S
N1236      C1241   1.361       .  A
N1236      H1268   1.040       .  S
N1237      C1244   1.363       .  A
N1237      C1245   1.362       .  A
N1238      C1243   1.359       .  A
N1238      H1269   1.042       .  S
N1239      C1246   1.358       .  A
N1239      C1247   1.360       .  A
C1240      C1248   1.386       .  A
C1240      C1256   1.431       .  A
C1241      C1257   1.431       .  A
C1241      C1249   1.386       .  A
C1242      C1250   1.384       .  A
C1242      C1259   1.422       .  A
C1243      C1258   1.421       .  A
C1243      C1251   1.385       .  A
C1244      C1256   1.431       .  A
C1244      C1252   1.384       .  A
C1245      C1259   1.432       .  A
C1245      C1253   1.384       .  A
C1246      C1254   1.384       .  A
C1246      C1257   1.424       .  A
C1247      C1255   1.384       .  A
C1247      C1258   1.423       .  A
C1248      H1260   1.082       .  S
C1249      H1261   1.081       .  S
C1250      H1262   1.078       .  S
C1251      H1263   1.082       .  S
C1252      C1253   1.378       .  A
C1252      H1264   1.081       .  S
C1253      H1265   1.079       .  S
C1254      C1255   1.375       .  A
C1254      H1266   1.078       .  S
C1255      H1267   1.082       .  S
C1257      N1545   1.463       .  S
C1258      N1286   1.461       .  S
C1259      N1591   1.467       .  S
C1270      C1272   1.560       .  S
C1270      C1274   1.535       .  S
C1270      C1273   1.560       .  S
C1270      C1780   1.501       .  S
C1271      C1275   1.545       .  S
C1271      C1277   1.553       .  S
C1271      C1276   1.563       .  S
C1271      C1790   1.504       .  S
C1272      C1280   1.401       .  A
C1272      C1275   1.375       .  A
C1273      C1284   1.400       .  A
C1273      C1276   1.384       .  A
C1274      C1288   1.385       .  A
C1274      C1277   1.378       .  A
C1275      C1278   1.394       .  A
C1276      C1282   1.398       .  A
C1277      C1285   1.395       .  A
C1278      N1279   1.366       .  A
C1278      H1291   1.082       .  S
N1279      C1280   1.367       .  A
N1279      C1461   1.474       .  S
C1280      H1281   1.082       .  S
C1282      N1283   1.366       .  A
C1282      H1292   1.082       .  S
N1283      C1284   1.365       .  A
N1283      C1347   1.471       .  S
C1284      H1290   1.082       .  S
C1285      N1286   1.365       .  A
C1285      H1287   1.081       .  S
N1286      C1288   1.360       .  A
C1288      H1289   1.082       .  S
N1293      C1298   1.366       .  A
N1293      C1903   1.367   1_545  A
N1293      H1325   1.040       .  S
N1294      C1301   1.358       .  A
N1294      C1302   1.358       .  A
N1295      C1300   1.364       .  A
N1295      C1905   1.364   1_545  A
N1295      H1326   1.041       .  S
N1296      C1303   1.365       .  A
N1296      C1304   1.365       .  A
C1297      C1305   1.385       .  A
C1297      C1313   1.439       .  A
C1297      N1899   1.367       .  A
C1298      C1314   1.440       .  A
C1298      C1306   1.385       .  A
C1299      C1307   1.385       .  A
C1299      C1316   1.434       .  A
C1299      N1901   1.364       .  A
C1300      C1315   1.434       .  A
C1300      C1308   1.387       .  A
C1301      C1313   1.419       .  A
C1301      C1309   1.383       .  A
C1302      C1316   1.419       .  A
C1302      C1310   1.384       .  A
C1303      C1311   1.385       .  A
C1303      C1314   1.436       .  A
C1304      C1312   1.386       .  A
C1304      C1315   1.437       .  A
C1305      C1912   1.385       .  A
C1305      H1317   1.082       .  S
C1306      C1911   1.385   1_545  A
C1306      H1318   1.078       .  S
C1307      C1914   1.382       .  A
C1307      H1319   1.080       .  S
C1308      C1913   1.382   1_545  A
C1308      H1320   1.082       .  S
C1309      C1310   1.373       .  A
C1309      H1321   1.079       .  S
C1310      H1322   1.082       .  S
C1311      C1312   1.379       .  A
C1311      H1323   1.082       .  S
C1312      H1324   1.082       .  S
C1313      N1594   1.470       .  S
C1315      N1571   1.476       .  S
C1316      N1377   1.467       .  S
N1327      C1332   1.364       .  A
N1327      C1937   1.362   1_545  A
N1327      H1359   1.041       .  S
N1328      C1335   1.362       .  A
N1328      C1336   1.364       .  A
N1329      C1334   1.358       .  A
N1329      C1939   1.360   1_545  A
N1329      H1360   1.041       .  S
N1330      C1337   1.359       .  A
N1330      C1338   1.359       .  A
C1331      C1339   1.384       .  A
C1331      C1347   1.430       .  A
C1331      N1933   1.362       .  A
C1332      C1348   1.432       .  A
C1332      C1340   1.386       .  A
C1333      C1341   1.385       .  A
C1333      C1350   1.422       .  A
C1333      N1935   1.360       .  A
C1334      C1349   1.423       .  A
C1334      C1342   1.386       .  A
C1335      C1347   1.431       .  A
C1335      C1343   1.383       .  A
C1336      C1350   1.434       .  A
C1336      C1344   1.386       .  A
C1337      C1345   1.386       .  A
C1337      C1348   1.428       .  A
C1338      C1346   1.384       .  A
C1338      C1349   1.425       .  A
C1339      C1946   1.381       .  A
C1339      H1351   1.079       .  S
C1340      C1945   1.381   1_545  A
C1340      H1352   1.082       .  S
C1341      C1948   1.377       .  A
C1341      H1353   1.082       .  S
C1342      C1947   1.377   1_545  A
C1342      H1354   1.081       .  S
C1343      C1344   1.381       .  A
C1343      H1355   1.079       .  S
C1344      H1356   1.082       .  S
C1345      C1346   1.378       .  A
C1345      H1357   1.082       .  S
C1346      H1358   1.082       .  S
C1348      N1541   1.468       .  S
C1349      N1427   1.461       .  S
C1350      N1522   1.468       .  S
C1361      C1363   1.562       .  S
C1361      C1365   1.536       .  S
C1361      C1364   1.562       .  S
C1361      C1760   1.490       .  S
C1362      C1366   1.538       .  S
C1362      C1368   1.559       .  S
C1362      C1367   1.557       .  S
C1362      C1770   1.488       .  S
C1363      C1371   1.403       .  A
C1363      C1366   1.374       .  A
C1364      C1375   1.401       .  A
C1364      C1367   1.380       .  A
C1365      C1379   1.387       .  A
C1365      C1368   1.371       .  A
C1366      C1369   1.390       .  A
C1367      C1373   1.395       .  A
C1368      C1376   1.401       .  A
C1369      N1370   1.362       .  A
C1369      H1382   1.082       .  S
N1370      C1371   1.373       .  A
N1370      C1463   1.473       .  S
C1371      H1372   1.082       .  S
C1373      N1374   1.361       .  A
C1373      H1383   1.082       .  S
N1374      C1375   1.367       .  A
N1374      C1405   1.467       .  S
C1375      H1381   1.082       .  S
C1376      N1377   1.370       .  A
C1376      H1378   1.082       .  S
N1377      C1379   1.357       .  A
C1379      H1380   1.082       .  S
N1384      C1389   1.361       .  A
N1384      C1388   1.362       .  A
N1384      H1416   1.042       .  S
N1385      C1393   1.361       .  A
N1386      C1391   1.359       .  A
N1386      C1390   1.358       .  A
N1386      H1417   1.041       .  S
N1387      C1395   1.359       .  A
C1388      C1396   1.384       .  A
C1388      C1404   1.426       .  A
C1389      C1405   1.428       .  A
C1389      C1397   1.383       .  A
C1390      C1398   1.387       .  A
C1390      C1407   1.425       .  A
C1391      C1406   1.424       .  A
C1391      C1399   1.386       .  A
C1392      C1404   1.428       .  A
C1392      C1400   1.383       .  A
C1393      C1407   1.431       .  A
C1393      C1401   1.383       .  A
C1394      C1402   1.381       .  A
C1394      C1405   1.422       .  A
C1395      C1403   1.386       .  A
C1395      C1406   1.426       .  A
C1396      C1397   1.382       .  A
C1396      H1408   1.081       .  S
C1397      H1409   1.078       .  S
C1398      C1399   1.381       .  A
C1398      H1410   1.082       .  S
C1399      H1411   1.082       .  S
C1400      H1412   1.082       .  S
C1401      H1413   1.077       .  S
C1402      H1414   1.078       .  S
C1403      H1415   1.082       .  S
C1404      N1568   1.470       .  S
C1406      N1525   1.463       .  S
C1407      N1431   1.466       .  S
C1418      C1420   1.532       .  S
C1418      C1422   1.556       .  S
C1418      C1421   1.557       .  S
C1418      C1753   1.492       .  S
C1419      C1423   1.539       .  S
C1419      C1425   1.556       .  S
C1419      C1424   1.560       .  S
C1419      C1740   1.498       .  S
C1420      C1428   1.389       .  A
C1420      C1423   1.369       .  A
C1421      C1432   1.394       .  A
C1421      C1424   1.386       .  A
C1422      C1436   1.395       .  A
C1422      C1425   1.381       .  A
C1423      C1426   1.388       .  A
C1424      C1430   1.396       .  A
C1425      C1433   1.397       .  A
C1426      N1427   1.364       .  A
C1426      H1439   1.082       .  S
N1427      C1428   1.363       .  A
C1428      H1429   1.082       .  S
C1430      N1431   1.363       .  A
C1430      H1440   1.082       .  S
N1431      C1432   1.363       .  A
C1432      H1438   1.082       .  S
C1433      N1434   1.367       .  A
C1433      H1435   1.082       .  S
N1434      C1436   1.360       .  A
N1434      C1498   1.467       .  S
C1436      H1437   1.081       .  S
N1441      C1446   1.363       .  A
N1441      C1445   1.364       .  A
N1441      H1473   1.041       .  S
N1442      C1449   1.364   1_556  A
N1442      C1450   1.363       .  A
N1443      C1448   1.366       .  A
N1443      C1447   1.366       .  A
N1443      H1474   1.041       .  S
N1444      C1451   1.362   1_556  A
N1444      C1452   1.362       .  A
C1445      C1453   1.386       .  A
C1445      C1461   1.434       .  A
C1446      C1462   1.434       .  A
C1446      C1454   1.387       .  A
C1447      C1455   1.383       .  A
C1447      C1464   1.438       .  A
C1448      C1463   1.439       .  A
C1448      C1456   1.386       .  A
C1449      C1461   1.432       .  A
C1449      C1457   1.386       .  A
C1450      C1464   1.431       .  A
C1450      C1458   1.382       .  A
C1451      C1459   1.386       .  A
C1451      C1462   1.429       .  A
C1452      C1460   1.385       .  A
C1452      C1463   1.427       .  A
C1453      C1454   1.382       .  A
C1453      H1465   1.082       .  S
C1454      H1466   1.082       .  S
C1455      C1456   1.384       .  A
C1455      H1467   1.077       .  S
C1456      H1468   1.082       .  S
C1457      C1458   1.378   1_554  A
C1457      H1469   1.082       .  S
C1458      H1470   1.078       .  S
C1459      C1460   1.376   1_554  A
C1459      H1471   1.081       .  S
C1460      H1472   1.082       .  S
C1462      N1587   1.471       .  S
C1464      N1518   1.478       .  S
N1475      C1480   1.357       .  A
N1475      C1479   1.357       .  A
N1475      H1507   1.042       .  S
N1476      C1483   1.358   1_556  A
N1476      C1484   1.359       .  A
N1477      C1482   1.363       .  A
N1477      C1481   1.363       .  A
N1477      H1508   1.041       .  S
N1478      C1485   1.364   1_556  A
N1478      C1486   1.362       .  A
C1479      C1487   1.386       .  A
C1479      C1495   1.420       .  A
C1480      C1496   1.419       .  A
C1480      C1488   1.384       .  A
C1481      C1489   1.384       .  A
C1481      C1498   1.433       .  A
C1482      C1497   1.433       .  A
C1482      C1490   1.386       .  A
C1483      C1495   1.422       .  A
C1483      C1491   1.381       .  A
C1484      C1498   1.420       .  A
C1484      C1492   1.384       .  A
C1485      C1493   1.384       .  A
C1485      C1496   1.433       .  A
C1486      C1494   1.383       .  A
C1486      C1497   1.433       .  A
C1487      C1488   1.378       .  A
C1487      H1499   1.082       .  S
C1488      H1500   1.080       .  S
C1489      C1490   1.383       .  A
C1489      H1501   1.079       .  S
C1490      H1502   1.082       .  S
C1491      C1492   1.375   1_554  A
C1491      H1503   1.076       .  S
C1492      H1504   1.082       .  S
C1493      C1494   1.381   1_554  A
C1493      H1505   1.082       .  S
C1494      H1506   1.078       .  S
C1495      N1548   1.460       .  S
C1497      N1564   1.473       .  S
C1509      C1511   1.564       .  S
C1509      C1513   1.538       .  S
C1509      C1512   1.565       .  S
C1509      C1730   1.505       .  S
C1510      C1514   1.564       .  S
C1510      C1516   1.553       .  S
C1510      C1515   1.534       .  S
C1510      C1720   1.498       .  S
C1511      C1519   1.403       .  A
C1511      C1514   1.381       .  A
C1512      C1523   1.403       .  A
C1512      C1515   1.377       .  A
C1513      C1527   1.383       .  A
C1513      C1516   1.380       .  A
C1514      C1517   1.402       .  A
C1515      C1521   1.386       .  A
C1516      C1524   1.397       .  A
C1517      N1518   1.366       .  A
C1517      H1530   1.082       .  S
N1518      C1519   1.369       .  A
C1519      H1520   1.082       .  S
C1521      N1522   1.358       .  A
C1521      H1531   1.082       .  S
N1522      C1523   1.371       .  A
C1523      H1529   1.082       .  S
C1524      N1525   1.368       .  A
C1524      H1526   1.082       .  S
N1525      C1527   1.360       .  A
C1527      H1528   1.083       .  S
C1532      C1534   1.559       .  S
C1532      C1536   1.550       .  S
C1532      C1535   1.538       .  S
C1532      C1703   1.493       .  S
C1533      C1537   1.562       .  S
C1533      C1539   1.536       .  S
C1533      C1538   1.550       .  S
C1533      C1713   1.502       .  S
C1534      C1542   1.395       .  A
C1534      C1537   1.390       .  A
C1535      C1546   1.388       .  A
C1535      C1538   1.376       .  A
C1536      C1550   1.397       .  A
C1536      C1539   1.371       .  A
C1537      C1540   1.394       .  A
C1538      C1544   1.394       .  A
C1539      C1547   1.386       .  A
C1540      N1541   1.364       .  A
C1540      H1553   1.081       .  S
N1541      C1542   1.364       .  A
C1542      H1543   1.082       .  S
C1544      N1545   1.368       .  A
C1544      H1554   1.082       .  S
N1545      C1546   1.361       .  A
C1546      H1552   1.082       .  S
C1547      N1548   1.359       .  A
C1547      H1549   1.082       .  S
N1548      C1550   1.364       .  A
C1550      H1551   1.081       .  S
C1555      C1557   1.546       .  S
C1555      C1559   1.557       .  S
C1555      C1558   1.562       .  S
C1555      C1680   1.513       .  S
C1556      C1560   1.563       .  S
C1556      C1562   1.567       .  S
C1556      C1561   1.545       .  S
C1556      C1693   1.512       .  S
C1557      C1565   1.396       .  A
C1557      C1560   1.375       .  A
C1558      C1569   1.402       .  A
C1558      C1561   1.384       .  A
C1559      C1573   1.395       .  A
C1559      C1562   1.385       .  A
C1560      C1563   1.404       .  A
C1561      C1567   1.391       .  A
C1562      C1570   1.404       .  A
C1563      N1564   1.367       .  A
C1563      H1576   1.081       .  S
N1564      C1565   1.364       .  A
C1565      H1566   1.082       .  S
C1567      N1568   1.363       .  A
C1567      H1577   1.082       .  S
N1568      C1569   1.370       .  A
C1569      H1575   1.082       .  S
C1570      N1571   1.370       .  A
C1570      H1572   1.082       .  S
N1571      C1573   1.363       .  A
C1573      H1574   1.082       .  S
C1578      C1580   1.553       .  S
C1578      C1582   1.570       .  S
C1578      C1581   1.539       .  S
C1578      C1673   1.512       .  S
C1579      C1583   1.566       .  S
C1579      C1585   1.537       .  S
C1579      C1584   1.549       .  S
C1579      C1660   1.503       .  S
C1580      C1588   1.393       .  A
C1580      C1583   1.384       .  A
C1581      C1592   1.387       .  A
C1581      C1584   1.370       .  A
C1582      C1596   1.407       .  A
C1582      C1585   1.383       .  A
C1583      C1586   1.399       .  A
C1584      C1590   1.399       .  A
C1585      C1593   1.384       .  A
C1586      N1587   1.367       .  A
C1586      H1599   1.081       .  S
N1587      C1588   1.362       .  A
C1588      H1589   1.082       .  S
C1590      N1591   1.371       .  A
C1590      H1600   1.082       .  S
N1591      C1592   1.358       .  A
C1592      H1598   1.082       .  S
C1593      N1594   1.355       .  A
C1593      H1595   1.083       .  S
N1594      C1596   1.377       .  A
C1596      H1597   1.082       .  S
O1601      C1609   1.239       .  A
O1602      C1610   1.260       .  A
O1602     Co1622   1.867       .  S
O1603      C1611   1.273       .  A
O1603     Co1623   2.023   1_546  S
O1604      C1612   1.261       .  A
O1604     Co1624   2.014   1_544  S
O1605      C1611   1.265       .  A
O1606      C1612   1.231       .  A
O1606     Co1621   1.917       .  S
O1607      C1610   1.283       .  A
O1607     Co1624   2.074   1_545  S
O1608      C1609   1.268       .  A
O1608     Co1623   2.016   1_545  S
C1609      C1810   1.453       .  S
C1610      C1743   1.442       .  S
C1611      C1690   1.469       .  S
C1612      C1700   1.435       .  S
O1613      C1626   1.269       .  A
O1613     Co2227   2.021       .  S
O1614      C1627   1.253       .  A
O1615      C1628   1.245       .  A
O1615     Co2229   1.927       .  S
O1616      C1629   1.267       .  A
O1616     Co2230   1.875       .  S
O1617      C1629   1.290       .  A
O1617     Co2228   2.082       .  S
O1618      C1628   1.272       .  A
O1619      C1626   1.258       .  A
O1619     Co2230   1.942   1_554  S
O1620      C1627   1.241       .  A
O1620     Co2229   1.935   1_556  S
Co1621     O2219   2.021   1_545  S
Co1621     O1625   1.978       .  S
Co1622     O2223   2.082   1_545  S
Co1622     O1625   1.970   1_556  S
Co1623     O2221   1.927       .  S
Co1623     O2226   1.935   1_554  S
Co1624     O2222   1.875       .  S
Co1624     O2225   1.942   1_556  S
Co1624     O1625   1.995   1_566  S
C1626      C1793   1.462       .  S
C1627      C1763   1.437       .  S
C1628      C1663   1.442       .  S
C1629      C1733   1.458       .  S
O1630      C1638   1.246       .  A
O1630     Co1650   1.929       .  S
O1631      C1639   1.245       .  A
O1631     Co1651   1.987       .  S
O1632      C1640   1.258       .  A
O1632     Co1652   1.980       .  S
O1633      C1641   1.271       .  A
O1633     Co1653   2.011       .  S
O1634      C1640   1.242       .  A
O1634     Co1651   1.930       .  S
O1635      C1641   1.253       .  A
O1635     Co1650   1.931       .  S
O1636      C1639   1.226       .  A
O1636     Co1653   1.942       .  S
O1637      C1638   1.269       .  A
O1637     Co1652   2.012       .  S
C1638      C1710   1.440       .  S
C1639      C1723   1.440       .  S
C1640      C1783   1.459       .  S
C1641      C1750   1.457       .  S
O1642      C1655   1.262       .  A
O1642     Co1650   2.006       .  S
O1643      C1656   1.283       .  A
O1643     Co1651   2.034       .  S
O1644      C1657   1.253       .  A
O1644     Co1652   1.959       .  S
O1645      C1658   1.275       .  A
O1645     Co1653   1.922       .  S
O1646      C1658   1.269       .  A
O1646     Co1651   1.980       .  S
O1647      C1657   1.264       .  A
O1647     Co1650   2.016       .  S
O1648      C1655   1.252       .  A
O1648     Co1653   1.969       .  S
O1649      C1656   1.263       .  A
O1649     Co1652   1.874       .  S
Co1650     O1654   2.053       .  S
Co1651     O1654   2.181       .  S
Co1652     O1654   1.926       .  S
Co1653     O1654   1.923       .  S
C1655      C1683   1.470       .  S
C1656      C1670   1.461       .  S
C1657      C1803   1.492       .  S
C1658      C1773   1.434       .  S
C1659      C1660   1.426       .  A
C1659      C1664   1.402       .  A
C1659     Br1666   1.933       .  S
C1660      C1661   1.400       .  A
C1661      C1662   1.379       .  A
C1661     Br1668   1.939       .  S
C1662      C1663   1.410       .  A
C1662     Br1667   1.933       .  S
C1663      C1664   1.399       .  A
C1664     Br1665   1.931       .  S
C1669      C1670   1.406       .  A
C1669      C1674   1.395       .  A
C1669     Br1676   1.938       .  S
C1670      C1671   1.415       .  A
C1671      C1672   1.397       .  A
C1671     Br1678   1.940       .  S
C1672      C1673   1.414       .  A
C1672     Br1677   1.934       .  S
C1673      C1674   1.429       .  A
C1674     Br1675   1.946       .  S
C1679      C1680   1.415       .  A
C1679      C1684   1.401       .  A
C1679     Br1686   1.939       .  S
C1680      C1681   1.417       .  A
C1681      C1682   1.394       .  A
C1681     Br1688   1.941       .  S
C1682      C1683   1.407       .  A
C1682     Br1687   1.924       .  S
C1683      C1684   1.413       .  A
C1684     Br1685   1.928       .  S
C1689      C1690   1.401       .  A
C1689      C1694   1.389       .  A
C1689     Br1696   1.913       .  S
C1690      C1691   1.419       .  A
C1691      C1692   1.397       .  A
C1691     Br1698   1.919       .  S
C1692      C1693   1.403       .  A
C1692     Br1697   1.937       .  S
C1693      C1694   1.404       .  A
C1694     Br1695   1.926       .  S
C1699      C1700   1.399       .  A
C1699      C1704   1.388       .  A
C1699     Br1706   1.927       .  S
C1700      C1701   1.422       .  A
C1701      C1702   1.392       .  A
C1701     Br1708   1.931       .  S
C1702      C1703   1.400       .  A
C1702     Br1707   1.939       .  S
C1703      C1704   1.404       .  A
C1704     Br1705   1.927       .  S
C1709      C1710   1.395       .  A
C1709      C1714   1.395       .  A
C1709     Br1716   1.916       .  S
C1710      C1711   1.406       .  A
C1711      C1712   1.382       .  A
C1711     Br1718   1.930       .  S
C1712      C1713   1.404       .  A
C1712     Br1717   1.933       .  S
C1713      C1714   1.425       .  A
C1714     Br1715   1.939       .  S
C1719      C1720   1.406       .  A
C1719      C1724   1.376       .  A
C1719     Br1726   1.933       .  S
C1720      C1721   1.414       .  A
C1721      C1722   1.401       .  A
C1721     Br1728   1.935       .  S
C1722      C1723   1.408       .  A
C1722     Br1727   1.927       .  S
C1723      C1724   1.397       .  A
C1724     Br1725   1.919       .  S
C1729      C1730   1.400       .  A
C1729      C1734   1.394       .  A
C1729     Br1736   1.936       .  S
C1730      C1731   1.408       .  A
C1731      C1732   1.393       .  A
C1731     Br1738   1.932       .  S
C1732      C1733   1.408       .  A
C1732     Br1737   1.926       .  S
C1733      C1734   1.417       .  A
C1734     Br1735   1.927       .  S
C1739      C1740   1.405       .  A
C1739      C1744   1.378       .  A
C1739     Br1746   1.927       .  S
C1740      C1741   1.417       .  A
C1741      C1742   1.398       .  A
C1741     Br1748   1.942       .  S
C1742      C1743   1.409       .  A
C1742     Br1747   1.923       .  S
C1743      C1744   1.396       .  A
C1744     Br1745   1.921       .  S
C1749      C1750   1.425       .  A
C1749      C1754   1.392       .  A
C1749     Br1756   1.926       .  S
C1750      C1751   1.412       .  A
C1751      C1752   1.386       .  A
C1751     Br1758   1.920       .  S
C1752      C1753   1.396       .  A
C1752     Br1757   1.933       .  S
C1753      C1754   1.396       .  A
C1754     Br1755   1.940       .  S
C1759      C1760   1.414       .  A
C1759      C1764   1.393       .  A
C1759     Br1766   1.945       .  S
C1760      C1761   1.409       .  A
C1761      C1762   1.378       .  A
C1761     Br1768   1.931       .  S
C1762      C1763   1.394       .  A
C1762     Br1767   1.914       .  S
C1763      C1764   1.412       .  A
C1764     Br1765   1.920       .  S
C1769      C1770   1.406       .  A
C1769      C1774   1.388       .  A
C1769     Br1776   1.937       .  S
C1770      C1771   1.409       .  A
C1771      C1772   1.376       .  A
C1771     Br1778   1.929       .  S
C1772      C1773   1.388       .  A
C1772     Br1777   1.918       .  S
C1773      C1774   1.405       .  A
C1774     Br1775   1.926       .  S
C1779      C1780   1.403       .  A
C1779      C1784   1.386       .  A
C1779     Br1786   1.935       .  S
C1780      C1781   1.403       .  A
C1781      C1782   1.389       .  A
C1781     Br1788   1.931       .  S
C1782      C1783   1.411       .  A
C1782     Br1787   1.925       .  S
C1783      C1784   1.404       .  A
C1784     Br1785   1.919       .  S
C1789      C1790   1.408       .  A
C1789      C1794   1.398       .  A
C1789     Br1796   1.934       .  S
C1790      C1791   1.404       .  A
C1791      C1792   1.390       .  A
C1791     Br1798   1.943       .  S
C1792      C1793   1.417       .  A
C1792     Br2403   1.921       .  S
C1793      C1794   1.410       .  A
C1794     Br1795   1.931       .  S
Br1797     C2398   1.921   1_545  S
C1799      C1800   1.419       .  A
C1799      C1804   1.405       .  A
C1799     Br1806   1.946       .  S
C1800      C1801   1.400       .  A
C1801      C1802   1.393       .  A
C1801     Br1808   1.925       .  S
C1802      C1803   1.417       .  A
C1802     Br1807   1.926       .  S
C1803      C1804   1.421       .  A
C1804     Br1805   1.927       .  S
C1809      C1810   1.401       .  A
C1809      C1814   1.377       .  A
C1809     Br1816   1.914       .  S
C1810      C1811   1.416       .  A
C1811      C1812   1.399       .  A
C1811     Br1818   1.940       .  S
C1812      C1813   1.416       .  A
C1812     Br1817   1.938       .  S
C1813      C1814   1.408       .  A
C1814     Br1815   1.937       .  S
C1819      C1821   1.525       .  S
C1819      C1823   1.562       .  S
C1819      C1822   1.552       .  S
C1819      C2419   1.501       .  S
C1820      C1824   1.559       .  S
C1820      C1826   1.561       .  S
C1820      C1825   1.577       .  S
C1820      C2406   1.522       .  S
C1821      C1829   1.385       .  A
C1821      C1824   1.369       .  A
C1822      C1833   1.393       .  A
C1822      C1825   1.396       .  A
C1823      C1837   1.404       .  A
C1823      C1826   1.378       .  A
C1824      C1827   1.404       .  A
C1825      C1831   1.403       .  A
C1826      C1834   1.400       .  A
C1827      N1828   1.374       .  A
C1827      H1840   1.082       .  S
N1828      C1829   1.355       .  A
N1828      C2102   1.466       .  S
C1829      H1830   1.083       .  S
C1831      N1832   1.367       .  A
C1831      H1841   1.079       .  S
N1832      C1833   1.361       .  A
N1832      C1862   1.471       .  S
C1833      H1839   1.082       .  S
C1834      N1835   1.367       .  A
C1834      H1836   1.082       .  S
N1835      C1837   1.369       .  A
N1835      C1920   1.479       .  S
C1837      H1838   1.082       .  S
N1842      C1847   1.361       .  A
N1842      H1874   1.040       .  S
N1843      C1850   1.363       .  A
N1843      C1851   1.362       .  A
N1844      C1849   1.359       .  A
N1844      H1875   1.042       .  S
N1845      C1852   1.358       .  A
N1845      C1853   1.360       .  A
C1846      C1854   1.386       .  A
C1846      C1862   1.431       .  A
C1847      C1863   1.431       .  A
C1847      C1855   1.386       .  A
C1848      C1856   1.384       .  A
C1848      C1865   1.422       .  A
C1849      C1864   1.421       .  A
C1849      C1857   1.385       .  A
C1850      C1862   1.431       .  A
C1850      C1858   1.384       .  A
C1851      C1865   1.432       .  A
C1851      C1859   1.384       .  A
C1852      C1860   1.384       .  A
C1852      C1863   1.424       .  A
C1853      C1861   1.384       .  A
C1853      C1864   1.423       .  A
C1854      H1866   1.082       .  S
C1855      H1867   1.081       .  S
C1856      H1868   1.078       .  S
C1857      H1869   1.082       .  S
C1858      C1859   1.378       .  A
C1858      H1870   1.081       .  S
C1859      H1871   1.079       .  S
C1860      C1861   1.375       .  A
C1860      H1872   1.078       .  S
C1861      H1873   1.082       .  S
C1863      N2151   1.463       .  S
C1864      N1892   1.461       .  S
C1865      N2197   1.467       .  S
C1876      C1878   1.560       .  S
C1876      C1880   1.535       .  S
C1876      C1879   1.560       .  S
C1876      C2386   1.501       .  S
C1877      C1881   1.545       .  S
C1877      C1883   1.553       .  S
C1877      C1882   1.563       .  S
C1877      C2396   1.504       .  S
C1878      C1886   1.401       .  A
C1878      C1881   1.375       .  A
C1879      C1890   1.400       .  A
C1879      C1882   1.384       .  A
C1880      C1894   1.385       .  A
C1880      C1883   1.378       .  A
C1881      C1884   1.394       .  A
C1882      C1888   1.398       .  A
C1883      C1891   1.395       .  A
C1884      N1885   1.366       .  A
C1884      H1897   1.082       .  S
N1885      C1886   1.367       .  A
N1885      C2067   1.474       .  S
C1886      H1887   1.082       .  S
C1888      N1889   1.366       .  A
C1888      H1898   1.082       .  S
N1889      C1890   1.365       .  A
N1889      C1953   1.471       .  S
C1890      H1896   1.082       .  S
C1891      N1892   1.365       .  A
C1891      H1893   1.081       .  S
N1892      C1894   1.360       .  A
C1894      H1895   1.082       .  S
N1899      C1904   1.366       .  A
N1899      H1931   1.040       .  S
N1900      C1907   1.358       .  A
N1900      C1908   1.358       .  A
N1901      C1906   1.364       .  A
N1901      H1932   1.041       .  S
N1902      C1909   1.365       .  A
N1902      C1910   1.365       .  A
C1903      C1911   1.385       .  A
C1903      C1919   1.439       .  A
C1904      C1920   1.440       .  A
C1904      C1912   1.385       .  A
C1905      C1913   1.385       .  A
C1905      C1922   1.434       .  A
C1906      C1921   1.434       .  A
C1906      C1914   1.387       .  A
C1907      C1919   1.419       .  A
C1907      C1915   1.383       .  A
C1908      C1922   1.419       .  A
C1908      C1916   1.384       .  A
C1909      C1917   1.385       .  A
C1909      C1920   1.436       .  A
C1910      C1918   1.386       .  A
C1910      C1921   1.437       .  A
C1911      H1923   1.082       .  S
C1912      H1924   1.078       .  S
C1913      H1925   1.080       .  S
C1914      H1926   1.082       .  S
C1915      C1916   1.373       .  A
C1915      H1927   1.079       .  S
C1916      H1928   1.082       .  S
C1917      C1918   1.379       .  A
C1917      H1929   1.082       .  S
C1918      H1930   1.082       .  S
C1919      N2200   1.470       .  S
C1921      N2177   1.476       .  S
C1922      N1983   1.467       .  S
N1933      C1938   1.364       .  A
N1933      H1965   1.041       .  S
N1934      C1941   1.362       .  A
N1934      C1942   1.364       .  A
N1935      C1940   1.358       .  A
N1935      H1966   1.041       .  S
N1936      C1943   1.359       .  A
N1936      C1944   1.359       .  A
C1937      C1945   1.384       .  A
C1937      C1953   1.430       .  A
C1938      C1954   1.432       .  A
C1938      C1946   1.386       .  A
C1939      C1947   1.385       .  A
C1939      C1956   1.422       .  A
C1940      C1955   1.423       .  A
C1940      C1948   1.386       .  A
C1941      C1953   1.431       .  A
C1941      C1949   1.383       .  A
C1942      C1956   1.434       .  A
C1942      C1950   1.386       .  A
C1943      C1951   1.386       .  A
C1943      C1954   1.428       .  A
C1944      C1952   1.384       .  A
C1944      C1955   1.425       .  A
C1945      H1957   1.079       .  S
C1946      H1958   1.082       .  S
C1947      H1959   1.082       .  S
C1948      H1960   1.081       .  S
C1949      C1950   1.381       .  A
C1949      H1961   1.079       .  S
C1950      H1962   1.082       .  S
C1951      C1952   1.378       .  A
C1951      H1963   1.082       .  S
C1952      H1964   1.082       .  S
C1954      N2147   1.468       .  S
C1955      N2033   1.461       .  S
C1956      N2128   1.468       .  S
C1967      C1969   1.562       .  S
C1967      C1971   1.536       .  S
C1967      C1970   1.562       .  S
C1967      C2366   1.490       .  S
C1968      C1972   1.538       .  S
C1968      C1974   1.559       .  S
C1968      C1973   1.557       .  S
C1968      C2376   1.488       .  S
C1969      C1977   1.403       .  A
C1969      C1972   1.374       .  A
C1970      C1981   1.401       .  A
C1970      C1973   1.380       .  A
C1971      C1985   1.387       .  A
C1971      C1974   1.371       .  A
C1972      C1975   1.390       .  A
C1973      C1979   1.395       .  A
C1974      C1982   1.401       .  A
C1975      N1976   1.362       .  A
C1975      H1988   1.082       .  S
N1976      C1977   1.373       .  A
N1976      C2069   1.473       .  S
C1977      H1978   1.082       .  S
C1979      N1980   1.361       .  A
C1979      H1989   1.082       .  S
N1980      C1981   1.367       .  A
N1980      C2011   1.467       .  S
C1981      H1987   1.082       .  S
C1982      N1983   1.370       .  A
C1982      H1984   1.082       .  S
N1983      C1985   1.357       .  A
C1985      H1986   1.082       .  S
N1990      C1995   1.361       .  A
N1990      C1994   1.362       .  A
N1990      H2022   1.042       .  S
N1991      C1999   1.361       .  A
N1992      C1997   1.359       .  A
N1992      C1996   1.358       .  A
N1992      H2023   1.041       .  S
N1993      C2001   1.359       .  A
C1994      C2002   1.384       .  A
C1994      C2010   1.426       .  A
C1995      C2011   1.428       .  A
C1995      C2003   1.383       .  A
C1996      C2004   1.387       .  A
C1996      C2013   1.425       .  A
C1997      C2012   1.424       .  A
C1997      C2005   1.386       .  A
C1998      C2010   1.428       .  A
C1998      C2006   1.383       .  A
C1999      C2013   1.431       .  A
C1999      C2007   1.383       .  A
C2000      C2008   1.381       .  A
C2000      C2011   1.422       .  A
C2001      C2009   1.386       .  A
C2001      C2012   1.426       .  A
C2002      C2003   1.382       .  A
C2002      H2014   1.081       .  S
C2003      H2015   1.078       .  S
C2004      C2005   1.381       .  A
C2004      H2016   1.082       .  S
C2005      H2017   1.082       .  S
C2006      H2018   1.082       .  S
C2007      H2019   1.077       .  S
C2008      H2020   1.078       .  S
C2009      H2021   1.082       .  S
C2010      N2174   1.470       .  S
C2012      N2131   1.463       .  S
C2013      N2037   1.466       .  S
C2024      C2026   1.532       .  S
C2024      C2028   1.556       .  S
C2024      C2027   1.557       .  S
C2024      C2359   1.492       .  S
C2025      C2029   1.539       .  S
C2025      C2031   1.556       .  S
C2025      C2030   1.560       .  S
C2025      C2346   1.498       .  S
C2026      C2034   1.389       .  A
C2026      C2029   1.369       .  A
C2027      C2038   1.394       .  A
C2027      C2030   1.386       .  A
C2028      C2042   1.395       .  A
C2028      C2031   1.381       .  A
C2029      C2032   1.388       .  A
C2030      C2036   1.396       .  A
C2031      C2039   1.397       .  A
C2032      N2033   1.364       .  A
C2032      H2045   1.082       .  S
N2033      C2034   1.363       .  A
C2034      H2035   1.082       .  S
C2036      N2037   1.363       .  A
C2036      H2046   1.082       .  S
N2037      C2038   1.363       .  A
C2038      H2044   1.082       .  S
C2039      N2040   1.367       .  A
C2039      H2041   1.082       .  S
N2040      C2042   1.360       .  A
N2040      C2104   1.467       .  S
C2042      H2043   1.081       .  S
N2047      C2052   1.363       .  A
N2047      C2051   1.364       .  A
N2047      H2079   1.041       .  S
N2048      C2055   1.364   1_556  A
N2048      C2056   1.363       .  A
N2049      C2054   1.366       .  A
N2049      C2053   1.366       .  A
N2049      H2080   1.041       .  S
N2050      C2057   1.362   1_556  A
N2050      C2058   1.362       .  A
C2051      C2059   1.386       .  A
C2051      C2067   1.434       .  A
C2052      C2068   1.434       .  A
C2052      C2060   1.387       .  A
C2053      C2061   1.383       .  A
C2053      C2070   1.438       .  A
C2054      C2069   1.439       .  A
C2054      C2062   1.386       .  A
C2055      C2067   1.432       .  A
C2055      C2063   1.386       .  A
C2056      C2070   1.431       .  A
C2056      C2064   1.382       .  A
C2057      C2065   1.386       .  A
C2057      C2068   1.429       .  A
C2058      C2066   1.385       .  A
C2058      C2069   1.427       .  A
C2059      C2060   1.382       .  A
C2059      H2071   1.082       .  S
C2060      H2072   1.082       .  S
C2061      C2062   1.384       .  A
C2061      H2073   1.077       .  S
C2062      H2074   1.082       .  S
C2063      C2064   1.378   1_554  A
C2063      H2075   1.082       .  S
C2064      H2076   1.078       .  S
C2065      C2066   1.376   1_554  A
C2065      H2077   1.081       .  S
C2066      H2078   1.082       .  S
C2068      N2193   1.471       .  S
C2070      N2124   1.478       .  S
N2081      C2086   1.357       .  A
N2081      C2085   1.357       .  A
N2081      H2113   1.042       .  S
N2082      C2089   1.358   1_556  A
N2082      C2090   1.359       .  A
N2083      C2088   1.363       .  A
N2083      C2087   1.363       .  A
N2083      H2114   1.041       .  S
N2084      C2091   1.364   1_556  A
N2084      C2092   1.362       .  A
C2085      C2093   1.386       .  A
C2085      C2101   1.420       .  A
C2086      C2102   1.419       .  A
C2086      C2094   1.384       .  A
C2087      C2095   1.384       .  A
C2087      C2104   1.433       .  A
C2088      C2103   1.433       .  A
C2088      C2096   1.386       .  A
C2089      C2101   1.422       .  A
C2089      C2097   1.381       .  A
C2090      C2104   1.420       .  A
C2090      C2098   1.384       .  A
C2091      C2099   1.384       .  A
C2091      C2102   1.433       .  A
C2092      C2100   1.383       .  A
C2092      C2103   1.433       .  A
C2093      C2094   1.378       .  A
C2093      H2105   1.082       .  S
C2094      H2106   1.080       .  S
C2095      C2096   1.383       .  A
C2095      H2107   1.079       .  S
C2096      H2108   1.082       .  S
C2097      C2098   1.375   1_554  A
C2097      H2109   1.076       .  S
C2098      H2110   1.082       .  S
C2099      C2100   1.381   1_554  A
C2099      H2111   1.082       .  S
C2100      H2112   1.078       .  S
C2101      N2154   1.460       .  S
C2103      N2170   1.473       .  S
C2115      C2117   1.564       .  S
C2115      C2119   1.538       .  S
C2115      C2118   1.565       .  S
C2115      C2336   1.505       .  S
C2116      C2120   1.564       .  S
C2116      C2122   1.553       .  S
C2116      C2121   1.534       .  S
C2116      C2326   1.498       .  S
C2117      C2125   1.403       .  A
C2117      C2120   1.381       .  A
C2118      C2129   1.403       .  A
C2118      C2121   1.377       .  A
C2119      C2133   1.383       .  A
C2119      C2122   1.380       .  A
C2120      C2123   1.402       .  A
C2121      C2127   1.386       .  A
C2122      C2130   1.397       .  A
C2123      N2124   1.366       .  A
C2123      H2136   1.082       .  S
N2124      C2125   1.369       .  A
C2125      H2126   1.082       .  S
C2127      N2128   1.358       .  A
C2127      H2137   1.082       .  S
N2128      C2129   1.371       .  A
C2129      H2135   1.082       .  S
C2130      N2131   1.368       .  A
C2130      H2132   1.082       .  S
N2131      C2133   1.360       .  A
C2133      H2134   1.083       .  S
C2138      C2140   1.559       .  S
C2138      C2142   1.550       .  S
C2138      C2141   1.538       .  S
C2138      C2309   1.493       .  S
C2139      C2143   1.562       .  S
C2139      C2145   1.536       .  S
C2139      C2144   1.550       .  S
C2139      C2319   1.502       .  S
C2140      C2148   1.395       .  A
C2140      C2143   1.390       .  A
C2141      C2152   1.388       .  A
C2141      C2144   1.376       .  A
C2142      C2156   1.397       .  A
C2142      C2145   1.371       .  A
C2143      C2146   1.394       .  A
C2144      C2150   1.394       .  A
C2145      C2153   1.386       .  A
C2146      N2147   1.364       .  A
C2146      H2159   1.081       .  S
N2147      C2148   1.364       .  A
C2148      H2149   1.082       .  S
C2150      N2151   1.368       .  A
C2150      H2160   1.082       .  S
N2151      C2152   1.361       .  A
C2152      H2158   1.082       .  S
C2153      N2154   1.359       .  A
C2153      H2155   1.082       .  S
N2154      C2156   1.364       .  A
C2156      H2157   1.081       .  S
C2161      C2163   1.546       .  S
C2161      C2165   1.557       .  S
C2161      C2164   1.562       .  S
C2161      C2286   1.513       .  S
C2162      C2166   1.563       .  S
C2162      C2168   1.567       .  S
C2162      C2167   1.545       .  S
C2162      C2299   1.512       .  S
C2163      C2171   1.396       .  A
C2163      C2166   1.375       .  A
C2164      C2175   1.402       .  A
C2164      C2167   1.384       .  A
C2165      C2179   1.395       .  A
C2165      C2168   1.385       .  A
C2166      C2169   1.404       .  A
C2167      C2173   1.391       .  A
C2168      C2176   1.404       .  A
C2169      N2170   1.367       .  A
C2169      H2182   1.081       .  S
N2170      C2171   1.364       .  A
C2171      H2172   1.082       .  S
C2173      N2174   1.363       .  A
C2173      H2183   1.082       .  S
N2174      C2175   1.370       .  A
C2175      H2181   1.082       .  S
C2176      N2177   1.370       .  A
C2176      H2178   1.082       .  S
N2177      C2179   1.363       .  A
C2179      H2180   1.082       .  S
C2184      C2186   1.553       .  S
C2184      C2188   1.570       .  S
C2184      C2187   1.539       .  S
C2184      C2279   1.512       .  S
C2185      C2189   1.566       .  S
C2185      C2191   1.537       .  S
C2185      C2190   1.549       .  S
C2185      C2266   1.503       .  S
C2186      C2194   1.393       .  A
C2186      C2189   1.384       .  A
C2187      C2198   1.387       .  A
C2187      C2190   1.370       .  A
C2188      C2202   1.407       .  A
C2188      C2191   1.383       .  A
C2189      C2192   1.399       .  A
C2190      C2196   1.399       .  A
C2191      C2199   1.384       .  A
C2192      N2193   1.367       .  A
C2192      H2205   1.081       .  S
N2193      C2194   1.362       .  A
C2194      H2195   1.082       .  S
C2196      N2197   1.371       .  A
C2196      H2206   1.082       .  S
N2197      C2198   1.358       .  A
C2198      H2204   1.082       .  S
C2199      N2200   1.355       .  A
C2199      H2201   1.083       .  S
N2200      C2202   1.377       .  A
C2202      H2203   1.082       .  S
O2207      C2215   1.239       .  A
O2208      C2216   1.260       .  A
O2208     Co2228   1.867       .  S
O2209      C2217   1.273       .  A
O2209     Co2229   2.023   1_556  S
O2210      C2218   1.261       .  A
O2210     Co2230   2.014   1_554  S
O2211      C2217   1.265       .  A
O2212      C2218   1.231       .  A
O2212     Co2227   1.917       .  S
O2213      C2216   1.283       .  A
O2213     Co2230   2.074       .  S
O2214      C2215   1.268       .  A
O2214     Co2229   2.016       .  S
C2215      C2416   1.453       .  S
C2216      C2349   1.442       .  S
C2217      C2296   1.469       .  S
C2218      C2306   1.435       .  S
O2219      C2232   1.269       .  A
O2220      C2233   1.253       .  A
O2221      C2234   1.245       .  A
O2222      C2235   1.267       .  A
O2223      C2235   1.290       .  A
O2224      C2234   1.272       .  A
O2225      C2232   1.258       .  A
O2226      C2233   1.241       .  A
Co2227     O2231   1.978       .  S
Co2228     O2231   1.970   1_556  S
Co2230     O2231   1.995   1_556  S
C2232      C2399   1.462       .  S
C2233      C2369   1.437       .  S
C2234      C2269   1.442       .  S
C2235      C2339   1.458       .  S
O2236      C2244   1.246       .  A
O2236     Co2256   1.929       .  S
O2237      C2245   1.245       .  A
O2237     Co2257   1.987       .  S
O2238      C2246   1.258       .  A
O2238     Co2258   1.980       .  S
O2239      C2247   1.271       .  A
O2239     Co2259   2.011       .  S
O2240      C2246   1.242       .  A
O2240     Co2257   1.930       .  S
O2241      C2247   1.253       .  A
O2241     Co2256   1.931       .  S
O2242      C2245   1.226       .  A
O2242     Co2259   1.942       .  S
O2243      C2244   1.269       .  A
O2243     Co2258   2.012       .  S
C2244      C2316   1.440       .  S
C2245      C2329   1.440       .  S
C2246      C2389   1.459       .  S
C2247      C2356   1.457       .  S
O2248      C2261   1.262       .  A
O2248     Co2256   2.006       .  S
O2249      C2262   1.283       .  A
O2249     Co2257   2.034       .  S
O2250      C2263   1.253       .  A
O2250     Co2258   1.959       .  S
O2251      C2264   1.275       .  A
O2251     Co2259   1.922       .  S
O2252      C2264   1.269       .  A
O2252     Co2257   1.980       .  S
O2253      C2263   1.264       .  A
O2253     Co2256   2.016       .  S
O2254      C2261   1.252       .  A
O2254     Co2259   1.969       .  S
O2255      C2262   1.263       .  A
O2255     Co2258   1.874       .  S
Co2256     O2260   2.053       .  S
Co2257     O2260   2.181       .  S
Co2258     O2260   1.926       .  S
Co2259     O2260   1.923       .  S
C2261      C2289   1.470       .  S
C2262      C2276   1.461       .  S
C2263      C2409   1.492       .  S
C2264      C2379   1.434       .  S
C2265      C2266   1.426       .  A
C2265      C2270   1.402       .  A
C2265     Br2272   1.933       .  S
C2266      C2267   1.400       .  A
C2267      C2268   1.379       .  A
C2267     Br2274   1.939       .  S
C2268      C2269   1.410       .  A
C2268     Br2273   1.933       .  S
C2269      C2270   1.399       .  A
C2270     Br2271   1.931       .  S
C2275      C2276   1.406       .  A
C2275      C2280   1.395       .  A
C2275     Br2282   1.938       .  S
C2276      C2277   1.415       .  A
C2277      C2278   1.397       .  A
C2277     Br2284   1.940       .  S
C2278      C2279   1.414       .  A
C2278     Br2283   1.934       .  S
C2279      C2280   1.429       .  A
C2280     Br2281   1.946       .  S
C2285      C2286   1.415       .  A
C2285      C2290   1.401       .  A
C2285     Br2292   1.939       .  S
C2286      C2287   1.417       .  A
C2287      C2288   1.394       .  A
C2287     Br2294   1.941       .  S
C2288      C2289   1.407       .  A
C2288     Br2293   1.924       .  S
C2289      C2290   1.413       .  A
C2290     Br2291   1.928       .  S
C2295      C2296   1.401       .  A
C2295      C2300   1.389       .  A
C2295     Br2302   1.913       .  S
C2296      C2297   1.419       .  A
C2297      C2298   1.397       .  A
C2297     Br2304   1.919       .  S
C2298      C2299   1.403       .  A
C2298     Br2303   1.937       .  S
C2299      C2300   1.404       .  A
C2300     Br2301   1.926       .  S
C2305      C2306   1.399       .  A
C2305      C2310   1.388       .  A
C2305     Br2312   1.927       .  S
C2306      C2307   1.422       .  A
C2307      C2308   1.392       .  A
C2307     Br2314   1.931       .  S
C2308      C2309   1.400       .  A
C2308     Br2313   1.939       .  S
C2309      C2310   1.404       .  A
C2310     Br2311   1.927       .  S
C2315      C2316   1.395       .  A
C2315      C2320   1.395       .  A
C2315     Br2322   1.916       .  S
C2316      C2317   1.406       .  A
C2317      C2318   1.382       .  A
C2317     Br2324   1.930       .  S
C2318      C2319   1.404       .  A
C2318     Br2323   1.933       .  S
C2319      C2320   1.425       .  A
C2320     Br2321   1.939       .  S
C2325      C2326   1.406       .  A
C2325      C2330   1.376       .  A
C2325     Br2332   1.933       .  S
C2326      C2327   1.414       .  A
C2327      C2328   1.401       .  A
C2327     Br2334   1.935       .  S
C2328      C2329   1.408       .  A
C2328     Br2333   1.927       .  S
C2329      C2330   1.397       .  A
C2330     Br2331   1.919       .  S
C2335      C2336   1.400       .  A
C2335      C2340   1.394       .  A
C2335     Br2342   1.936       .  S
C2336      C2337   1.408       .  A
C2337      C2338   1.393       .  A
C2337     Br2344   1.932       .  S
C2338      C2339   1.408       .  A
C2338     Br2343   1.926       .  S
C2339      C2340   1.417       .  A
C2340     Br2341   1.927       .  S
C2345      C2346   1.405       .  A
C2345      C2350   1.378       .  A
C2345     Br2352   1.927       .  S
C2346      C2347   1.417       .  A
C2347      C2348   1.398       .  A
C2347     Br2354   1.942       .  S
C2348      C2349   1.409       .  A
C2348     Br2353   1.923       .  S
C2349      C2350   1.396       .  A
C2350     Br2351   1.921       .  S
C2355      C2356   1.425       .  A
C2355      C2360   1.392       .  A
C2355     Br2362   1.926       .  S
C2356      C2357   1.412       .  A
C2357      C2358   1.386       .  A
C2357     Br2364   1.920       .  S
C2358      C2359   1.396       .  A
C2358     Br2363   1.933       .  S
C2359      C2360   1.396       .  A
C2360     Br2361   1.940       .  S
C2365      C2366   1.414       .  A
C2365      C2370   1.393       .  A
C2365     Br2372   1.945       .  S
C2366      C2367   1.409       .  A
C2367      C2368   1.378       .  A
C2367     Br2374   1.931       .  S
C2368      C2369   1.394       .  A
C2368     Br2373   1.914       .  S
C2369      C2370   1.412       .  A
C2370     Br2371   1.920       .  S
C2375      C2376   1.406       .  A
C2375      C2380   1.388       .  A
C2375     Br2382   1.937       .  S
C2376      C2377   1.409       .  A
C2377      C2378   1.376       .  A
C2377     Br2384   1.929       .  S
C2378      C2379   1.388       .  A
C2378     Br2383   1.918       .  S
C2379      C2380   1.405       .  A
C2380     Br2381   1.926       .  S
C2385      C2386   1.403       .  A
C2385      C2390   1.386       .  A
C2385     Br2392   1.935       .  S
C2386      C2387   1.403       .  A
C2387      C2388   1.389       .  A
C2387     Br2394   1.931       .  S
C2388      C2389   1.411       .  A
C2388     Br2393   1.925       .  S
C2389      C2390   1.404       .  A
C2390     Br2391   1.919       .  S
C2395      C2396   1.408       .  A
C2395      C2400   1.398       .  A
C2395     Br2402   1.934       .  S
C2396      C2397   1.404       .  A
C2397      C2398   1.390       .  A
C2397     Br2404   1.943       .  S
C2398      C2399   1.417       .  A
C2399      C2400   1.410       .  A
C2400     Br2401   1.931       .  S
C2405      C2406   1.419       .  A
C2405      C2410   1.405       .  A
C2405     Br2412   1.946       .  S
C2406      C2407   1.400       .  A
C2407      C2408   1.393       .  A
C2407     Br2414   1.925       .  S
C2408      C2409   1.417       .  A
C2408     Br2413   1.926       .  S
C2409      C2410   1.421       .  A
C2410     Br2411   1.927       .  S
C2415      C2416   1.401       .  A
C2415      C2420   1.377       .  A
C2415     Br2422   1.914       .  S
C2416      C2417   1.416       .  A
C2417      C2418   1.399       .  A
C2417     Br2424   1.940       .  S
C2418      C2419   1.416       .  A
C2418     Br2423   1.938       .  S
C2419      C2420   1.408       .  A
C2420     Br2421   1.937       .  S
