geometry optimzed in LAMMPS
_audit_creation_date              2020-12-01 
_audit_creation_method            'lammps2cif' 
_symmetry_space_group_name_H-M    'P1' 
_symmetry_Int_Tables_number       1 
_symmetry_cell_setting            triclinic 
loop_ 
_symmetry_equiv_pos_as_xyz 
  x,y,z 
_cell_length_a                    29.90362173 
_cell_length_b                    30.37963092325607 
_cell_length_c                    29.716334160069678 
_cell_angle_alpha                 89.2030297084243 
_cell_angle_beta                  89.89162449809547 
_cell_angle_gamma                 90.65512386372248 
loop_ 
_atom_site_label 
_atom_site_type_symbol 
_atom_site_fract_x 
_atom_site_fract_y 
_atom_site_fract_z 
_atom_site_charge 
N1          N  0.84195554  0.82736641  0.00519613    -0.03000
C2          C  0.84226841  0.80836443  0.04754976    -0.00400
C3          C  0.83614350  0.76345038  0.04124743    -0.23300
C4          C  0.83193967  0.75572757  0.99557160    -0.23500
C5          C  0.83534036  0.79591491  0.97333348    -0.00500
H6          H  0.83202620  0.73876974  0.06753840     0.13300
H7          H  0.82593447  0.72400582  0.98046752     0.13300
N8          N  0.78683128  0.28645804  0.99856966    -0.03000
C9          C  0.76550088  0.30393333  0.03581458    -0.00400
C10         C  0.72944358  0.32697732  0.01875659    -0.23300
C11         C  0.72848666  0.32208017  0.97238976    -0.23500
C12         C  0.76396253  0.29581715  0.95928037    -0.00500
H13         H  0.70502252  0.34474621  0.03810068     0.13300
H14         H  0.70330100  0.33602412  0.95051203     0.13300
N15         N  0.28499965  0.84987464  0.00015898    -0.03000
C16         C  0.30948261  0.84450070  0.03940072    -0.00400
C17         C  0.35228985  0.83224777  0.02674803    -0.23300
C18         C  0.35447672  0.83086850  0.98070950    -0.23500
C19         C  0.31317253  0.84256342  0.96398534    -0.00500
H20         H  0.37964187  0.82420807  0.04910776     0.13300
H21         H  0.38386987  0.82258697  0.96141877     0.13300
N22         N  0.79811551  0.05835458  0.77267067    -0.03000
C23         C  0.77496054  0.09402814  0.75645311    -0.00400
C24         C  0.73953156  0.07658492  0.73212634    -0.23300
C25         C  0.74178504  0.03092465  0.73427644    -0.23500
C26         C  0.77866915  0.01894749  0.75991154    -0.00500
H27         H  0.71469004  0.09505515  0.71365094     0.13300
H28         H  0.71906383  0.00863944  0.71740312     0.13300
N29         N  0.03610116  0.26560227  0.78000970    -0.03000
C30         C  0.99883363  0.26200581  0.75107460    -0.00400
C31         C  0.01473952  0.24834380  0.70993996    -0.23300
C32         C  0.06037900  0.24381761  0.71250630    -0.23500
C33         C  0.07485769  0.25493356  0.75520675    -0.00500
H34         H  0.99493861  0.24292663  0.68002246     0.13300
H35         H  0.08161146  0.23532887  0.68444697     0.13300
N36         N  0.04281579  0.85686363  0.78430731    -0.03000
C37         C  0.00449111  0.83384836  0.79813823    -0.00400
C38         C  0.01796895  0.79141779  0.80901477    -0.23300
C39         C  0.06371153  0.78846275  0.80242344    -0.23500
C40         C  0.07899282  0.82902853  0.78729489    -0.00500
H41         H  0.99601319  0.76403554  0.81779509     0.13300
H42         H  0.08343496  0.75917534  0.80717549     0.13300
N43         N  0.27148616  0.06117368  0.77725415    -0.03000
C44         C  0.28919427  0.09873744  0.75785682    -0.00400
C45         C  0.32137649  0.08616925  0.72746960    -0.23300
C46         C  0.32313851  0.04085494  0.72869721    -0.23500
C47         C  0.29149942  0.02469703  0.75948338    -0.00500
H48         H  0.34095212  0.10763769  0.70552522     0.13300
H49         H  0.34489892  0.02162204  0.70770136     0.13300
N50         N  0.05515720  0.83745125  0.21442450    -0.03000
C51         C  0.01678647  0.83613823  0.24058167    -0.00400
C52         C  0.03020938  0.83328532  0.28508341    -0.23300
C53         C  0.07657001  0.83368298  0.28618102    -0.23500
C54         C  0.09214207  0.83687062  0.24235883    -0.00500
H55         H  0.00842097  0.82982046  0.31405340     0.13300
H56         H  0.09690423  0.83021192  0.31608624     0.13300
N57         N  0.80895694  0.07123456  0.22225940    -0.03000
C58         C  0.81231947  0.10849835  0.24887798    -0.00400
C59         C  0.81856551  0.09361583  0.29276873    -0.23300
C60         C  0.81994441  0.04803274  0.29307840    -0.23500
C61         C  0.81466296  0.03401113  0.24941293    -0.00500
H62         H  0.82079744  0.11402688  0.32226173     0.13300
H63         H  0.82337593  0.02713293  0.32263031     0.13300
N64         N  0.03847473  0.26684779  0.23466879    -0.03000
C65         C  0.00035203  0.29328590  0.23428419    -0.00400
C66         C  0.01538650  0.33658325  0.23469360    -0.23300
C67         C  0.06164069  0.33722634  0.23475855    -0.23500
C68         C  0.07640430  0.29433353  0.23426603    -0.00500
H69         H  0.99449665  0.36537371  0.23643831     0.13300
H70         H  0.08256027  0.36644352  0.23665161     0.13300
Zr71       Zr  0.33167563  0.38043792  0.30526224     2.17500
O72         O  0.37443731  0.42563845  0.35433650    -0.50800
O73         O  0.31097978  0.46410910  0.28623302    -0.74000
O74         O  0.41880966  0.37724551  0.28649459    -0.80800
O75         O  0.24129773  0.32733021  0.38692296    -0.82600
O76         O  0.42890252  0.34629488  0.21813340    -0.78200
O77         O  0.30784064  0.36411940  0.38989601    -0.89800
O78         O  0.25904929  0.46629134  0.23088769    -0.75800
O79         O  0.32422823  0.38782423  0.22531220    -0.85300
O80         O  0.25249656  0.38341191  0.28907132    -0.85000
O81         O  0.35949942  0.31281789  0.27224060    -0.71700
O82         O  0.29488598  0.31127564  0.32717252    -0.83900
Zr83       Zr  0.24061812  0.25796851  0.19354471     2.26400
Zr84       Zr  0.35429298  0.32248078  0.19214329     2.06300
Zr85       Zr  0.21689904  0.31405285  0.30979467     2.10000
Zr86       Zr  0.24573951  0.39139077  0.20956229     1.78800
O87         O  0.18392503  0.25314367  0.35335783    -0.92700
O88         O  0.27429488  0.43123620  0.14358006    -0.40500
O89         O  0.21149852  0.32258873  0.22998121    -0.77100
O90         O  0.27607946  0.32854913  0.17398631    -0.95800
O91         O  0.31843960  0.25382213  0.21346669    -0.89100
O92         O  0.24467385  0.24871499  0.27421835    -0.91900
C93         C  0.28428629  0.48644131  0.25856428     1.01800
C94         C  0.27335423  0.34434724  0.41009203     1.14800
C95         C  0.44567528  0.36448980  0.25344162     1.05500
O96         O  0.37899902  0.38219764  0.14214274    -0.94100
O97         O  0.33841314  0.30152723  0.11448175    -0.89800
O98         O  0.26936065  0.26918881  0.11075724    -0.83000
C99         C  0.30567699  0.28581417  0.09130607     1.12200
O100        O  0.37460374  0.23503585  0.35486730    -0.96100
Zr101      Zr  0.32183224  0.24550468  0.29348384     1.88900
O102        O  0.26400749  0.17531770  0.20423357    -0.72700
O103        O  0.41152523  0.26991508  0.17168705    -0.52000
O104        O  0.39508381  0.21411267  0.27972836    -0.96600
O105        O  0.28902728  0.21488499  0.36250007    -0.53900
O106        O  0.30635118  0.17171870  0.26740404    -0.73200
C107        C  0.28816154  0.15290157  0.23356872     0.99100
O108        O  0.19145906  0.21878828  0.14357900    -0.62000
O109        O  0.16195246  0.36520583  0.33878944    -0.56800
O110        O  0.15507479  0.27033227  0.21039527    -0.93500
O111        O  0.14230483  0.29911015  0.27963021    -0.92000
O112        O  0.17218220  0.41721584  0.23171265    -0.92300
O113        O  0.19132013  0.39368494  0.14863420    -0.91100
C114        C  0.12747181  0.28470408  0.24193206     1.18000
H115        H  0.23880954  0.40763890  0.30443202     0.33900
H116        H  0.27134725  0.33769606  0.14327985     0.44800
H117        H  0.22839463  0.22257607  0.28378840     0.38300
H118        H  0.38957819  0.30641976  0.28152615     0.34800
H119        H  0.25487155  0.45726121  0.14027266     0.26600
H120        H  0.39479281  0.24372530  0.16113529     0.32500
H121        H  0.39676132  0.21104635  0.24666403     0.38400
H122        H  0.17119476  0.44827828  0.22126543     0.32900
H123        H  0.17826133  0.38322986  0.36103027     0.31700
H124        H  0.19518864  0.25623827  0.38442725     0.33400
H125        H  0.26146750  0.19919804  0.35317484     0.32400
H126        H  0.19249076  0.36417558  0.13498246     0.36400
H127        H  0.18438599  0.24105034  0.12018372     0.29100
H128        H  0.35108441  0.43701574  0.37436515     0.33300
H129        H  0.38209340  0.26524738  0.36468217     0.36200
H130        H  0.15582377  0.38579351  0.31351771     0.28800
H131        H  0.21174957  0.19801156  0.12876026     0.41700
H132        H  0.35421742  0.38637712  0.12050971     0.31700
H133        H  0.30351899  0.44356821  0.15309022     0.39400
H134        H  0.27840284  0.24053911  0.37951373     0.31200
H135        H  0.42557054  0.28261181  0.14415458     0.31300
H136        H  0.38329273  0.45088302  0.33489498     0.31500
N137        N  0.28467085  0.06361634  0.22211289    -0.03000
C138        C  0.30499075  0.10437554  0.22934949    -0.00400
C139        C  0.34845689  0.09549457  0.24307237    -0.23300
C140        C  0.35476541  0.05057019  0.24381946    -0.23500
C141        C  0.31539581  0.03050520  0.23044487    -0.00500
H142        H  0.37347585  0.11962455  0.25263995     0.13300
H143        H  0.38551196  0.03431223  0.25299131     0.13300
Zr144      Zr  0.34883475  0.76391741  0.31873281     2.17500
O145        O  0.39067995  0.71268575  0.36623953    -0.50800
O146        O  0.32100540  0.77863948  0.40206125    -0.74000
O147        O  0.43618007  0.78569598  0.31560412    -0.80800
O148        O  0.25403731  0.68556511  0.26277456    -0.82600
O149        O  0.44215533  0.85377027  0.28257070    -0.78200
O150        O  0.32341443  0.68238350  0.29439044    -0.89800
O151        O  0.30474648  0.85022538  0.40174747    -0.75800
O152        O  0.34031795  0.84261527  0.32643250    -0.85300
O153        O  0.26975192  0.77934840  0.32600869    -0.85000
O154        O  0.37404588  0.80209161  0.24995122    -0.71700
O155        O  0.30931570  0.74591669  0.24989732    -0.83900
Zr156      Zr  0.25270307  0.87688938  0.19851980     2.26400
Zr157      Zr  0.36739753  0.88050140  0.25975318     2.06300
Zr158      Zr  0.23144330  0.76167085  0.25726145     2.10000
Zr159      Zr  0.26212309  0.85702570  0.33456391     1.78800
O160        O  0.19516484  0.71906861  0.19855395    -0.92700
O161        O  0.27379360  0.92846132  0.36985353    -0.40500
O162        O  0.22618102  0.83908565  0.26565095    -0.77100
O163        O  0.28900157  0.89522127  0.26944790    -0.95800
O164        O  0.33073673  0.86011594  0.19090797    -0.89100
O165        O  0.25785552  0.79860693  0.19007463    -0.91900
C166        C  0.30748676  0.81410856  0.42334921     1.01800
C167        C  0.28803932  0.66301373  0.27518097     1.14800
C168        C  0.46101334  0.81981721  0.30108692     1.05500
O169        O  0.39967869  0.92892468  0.31596863    -0.94100
O170        O  0.34555088  0.95791625  0.24255302    -0.89800
O171        O  0.27693051  0.95850446  0.20904570    -0.83000
C172        C  0.31176729  0.97926008  0.22607432     1.12200
O173        O  0.38175203  0.71699456  0.17821608    -0.96100
Zr174      Zr  0.33506076  0.78204863  0.18278162     1.88900
O175        O  0.27176334  0.86713554  0.11333077    -0.72700
O176        O  0.41783617  0.90368569  0.19924819    -0.52000
O177        O  0.40722185  0.79817569  0.14781911    -0.96600
O178        O  0.29506546  0.72658762  0.13933735    -0.53900
O179        O  0.31955918  0.81005661  0.10895699    -0.73200
C180        C  0.29717489  0.84068543  0.09004508     0.99100
O181        O  0.19866650  0.91754806  0.15516051    -0.62000
O182        O  0.18298726  0.73374483  0.31764065    -0.56800
O183        O  0.16875648  0.86099471  0.21504126    -0.93500
O184        O  0.15723097  0.79264480  0.24570991    -0.92000
O185        O  0.20541110  0.82048078  0.38135233    -0.92300
O186        O  0.19285262  0.89831775  0.33981108    -0.91100
C187        C  0.14216297  0.82972351  0.23137088     1.18000
H188        H  0.25696521  0.76271916  0.35089581     0.33900
H189        H  0.28274728  0.92453700  0.27919920     0.44800
H190        H  0.24098169  0.78936186  0.16410430     0.38300
H191        H  0.40418864  0.79413737  0.24256325     0.34800
H192        H  0.25376374  0.92824946  0.39642944     0.26600
H193        H  0.40025175  0.92413968  0.18022898     0.32500
H194        H  0.40994158  0.83066947  0.14791533     0.38400
H195        H  0.18088607  0.81294702  0.36036908     0.32900
H196        H  0.15426759  0.72630878  0.30291921     0.31700
H197        H  0.16605361  0.70971867  0.21166497     0.33400
H198        H  0.28450696  0.70459154  0.16195007     0.32400
H199        H  0.18974456  0.91294390  0.31000565     0.36400
H200        H  0.19580151  0.94492984  0.17233401     0.29100
H201        H  0.42130839  0.71202136  0.35368904     0.33300
H202        H  0.37349878  0.69886116  0.20497043     0.36200
H203        H  0.19555287  0.70490048  0.32650337     0.28800
H204        H  0.21498611  0.92613340  0.12746450     0.41700
H205        H  0.37356080  0.94173375  0.33133149     0.31700
H206        H  0.26100142  0.95085080  0.34922810     0.39400
H207        H  0.31805289  0.71121066  0.12164662     0.31200
H208        H  0.44033268  0.92273884  0.21404158     0.31300
H209        H  0.37814861  0.68311299  0.36009082     0.31500
Zr210      Zr  0.83673234  0.26687243  0.19116728     2.17500
O211        O  0.88688122  0.23561229  0.13645127    -0.50800
O212        O  0.82599193  0.18369808  0.21116673    -0.74000
O213        O  0.92247466  0.27150679  0.20852830    -0.80800
O214        O  0.74070090  0.31486885  0.11206143    -0.82600
O215        O  0.93289554  0.29988048  0.27836060    -0.78200
O216        O  0.80810747  0.28063731  0.10835618    -0.89800
O217        O  0.77550206  0.17489873  0.26755711    -0.75800
O218        O  0.82978057  0.25636231  0.27104618    -0.85300
O219        O  0.75770599  0.25908709  0.20813452    -0.85000
O220        O  0.86356598  0.33368444  0.22732638    -0.71700
O221        O  0.79713066  0.33429683  0.17258699    -0.83900
Zr222      Zr  0.74350032  0.38488329  0.30730855     2.26400
Zr223      Zr  0.85795122  0.32146352  0.30720407     2.06300
Zr224      Zr  0.71925511  0.32715745  0.19133801     2.10000
Zr225      Zr  0.75177112  0.24854780  0.28734326     1.78800
O226        O  0.68809116  0.38396796  0.14247135    -0.92700
O227        O  0.78353488  0.21296313  0.35412179    -0.40500
O228        O  0.71515976  0.31767098  0.27133827    -0.77100
O229        O  0.77888831  0.31360818  0.32334919    -0.95800
O230        O  0.82156877  0.38980321  0.28744382    -0.89100
O231        O  0.74761628  0.39308049  0.22657907    -0.91900
C232        C  0.80336635  0.15850375  0.23973488     1.01800
C233        C  0.77293388  0.29860440  0.08854690     1.14800
C234        C  0.94898955  0.28441528  0.24128486     1.05500
O235        O  0.88317956  0.26227555  0.35666816    -0.94100
O236        O  0.83994257  0.33675217  0.38606742    -0.89800
O237        O  0.77236045  0.37070766  0.39034575    -0.83000
C238        C  0.80741089  0.35194114  0.40966334     1.12200
O239        O  0.87446962  0.40065612  0.14215692    -0.96100
Zr240      Zr  0.82501677  0.39939650  0.20747128     1.88900
O241        O  0.77069169  0.46877110  0.29409912    -0.72700
O242        O  0.91219102  0.37652053  0.33177419    -0.52000
O243        O  0.89551860  0.43642385  0.22510659    -0.96600
O244        O  0.78699286  0.43883820  0.14699717    -0.53900
O245        O  0.81708034  0.47286134  0.23363614    -0.73200
C246        C  0.79715768  0.49174341  0.26591579     0.99100
O247        O  0.69339508  0.42116986  0.35873771    -0.62000
O248        O  0.66522274  0.27170254  0.16711940    -0.56800
O249        O  0.65567823  0.38233224  0.29148118    -0.93500
O250        O  0.64595408  0.34657340  0.22535848    -0.92000
O251        O  0.68414452  0.21332033  0.25890351    -0.92300
O252        O  0.69470247  0.23720804  0.34507887    -0.91100
C253        C  0.62896837  0.36656760  0.25966148     1.18000
H254        H  0.74470591  0.23467013  0.19204790     0.33900
H255        H  0.77303815  0.30413990  0.35376271     0.44800
H256        H  0.73130848  0.41871365  0.21670547     0.38300
H257        H  0.89348569  0.34152251  0.21814523     0.34800
H258        H  0.77567242  0.23145969  0.38006589     0.26600
H259        H  0.92651056  0.38758152  0.30370840     0.32500
H260        H  0.91912807  0.41422500  0.22127911     0.38400
H261        H  0.68453478  0.18299003  0.27152478     0.32900
H262        H  0.64722593  0.26442525  0.19425303     0.31700
H263        H  0.65890702  0.37179233  0.13264699     0.33400
H264        H  0.78373824  0.41711525  0.12265188     0.32400
H265        H  0.69636282  0.26406329  0.36350279     0.36400
H266        H  0.71227554  0.42837148  0.38489613     0.29100
H267        H  0.90539793  0.21383723  0.15270234     0.33300
H268        H  0.87002129  0.37157648  0.12808626     0.36200
H269        H  0.64445054  0.28788925  0.14713560     0.28800
H270        H  0.68737034  0.44995438  0.34412795     0.41700
H271        H  0.91198047  0.27313378  0.36889606     0.31700
H272        H  0.76584952  0.18550023  0.35865343     0.39400
H273        H  0.80921824  0.46060569  0.13540481     0.31200
H274        H  0.89405503  0.40145743  0.34227324     0.31300
H275        H  0.90774251  0.25973829  0.12755997     0.31500
Zr276      Zr  0.75390668  0.77077626  0.31707873     2.17500
O277        O  0.70497393  0.71705108  0.35243503    -0.50800
O278        O  0.77071290  0.78366386  0.40370834    -0.74000
O279        O  0.77751399  0.68803010  0.30184860    -0.80800
O280        O  0.66388828  0.86103679  0.27953046    -0.82600
O281        O  0.84764477  0.68997729  0.27178957    -0.78200
O282        O  0.66877399  0.79118059  0.30751125    -0.89800
O283        O  0.82216520  0.83861429  0.40999129    -0.75800
O284        O  0.83296998  0.78489905  0.32520776    -0.85300
O285        O  0.76355482  0.84891956  0.32853952    -0.85000
O286        O  0.79086239  0.75571663  0.24555986    -0.71700
O287        O  0.72846321  0.81286516  0.25171280    -0.83900
Zr288      Zr  0.85937745  0.88061940  0.20107857     2.26400
Zr289      Zr  0.87033062  0.76644865  0.25594148     2.06300
Zr290      Zr  0.74043213  0.89003508  0.26263377     2.10000
Zr291      Zr  0.84170781  0.86248383  0.33635869     1.78800
O292        O  0.68934594  0.91951758  0.20659075    -0.92700
O293        O  0.90855344  0.84025629  0.37752435    -0.40500
O294        O  0.81949868  0.89963347  0.26936570    -0.77100
O295        O  0.88101071  0.84321528  0.27035012    -0.95800
O296        O  0.84403796  0.80424413  0.18979244    -0.89100
O297        O  0.77878852  0.87300510  0.19314205    -0.91900
C298        C  0.79664138  0.80979738  0.42818759     1.01800
C299        C  0.64446732  0.82550341  0.29503854     1.14800
C300        C  0.81287185  0.66785427  0.28515189     1.05500
O301        O  0.92214444  0.73368260  0.30949184    -0.94100
O302        O  0.94785828  0.79454443  0.24154543    -0.89800
O303        O  0.94332722  0.86421483  0.21223126    -0.83000
C304        C  0.96674297  0.83102021  0.22786553     1.12200
O305        O  0.70209274  0.74474157  0.17738733    -0.96100
Zr306      Zr  0.76439644  0.79685886  0.18203021     1.88900
O307        O  0.85747662  0.85030448  0.11939822    -0.72700
O308        O  0.89507381  0.72472647  0.19128409    -0.52000
O309        O  0.77349303  0.73028426  0.13852874    -0.96600
O310        O  0.70154208  0.83682938  0.14992328    -0.53900
O311        O  0.79197776  0.81395164  0.10765936    -0.73200
C312        C  0.82996639  0.82794756  0.09353417     0.99100
O313        O  0.89939809  0.93569664  0.15577024    -0.62000
O314        O  0.71345202  0.93765318  0.32209232    -0.56800
O315        O  0.84071477  0.96163244  0.21885368    -0.93500
O316        O  0.77307368  0.96545277  0.25478195    -0.92000
O317        O  0.80974035  0.92705881  0.37128068    -0.92300
O318        O  0.89690562  0.92171308  0.34212491    -0.91100
C319        C  0.80904598  0.98412491  0.23877236     1.18000
H320        H  0.74722641  0.85817752  0.35478547     0.33900
H321        H  0.91020905  0.85126163  0.28105056     0.44800
H322        H  0.76799263  0.89082709  0.16840583     0.38300
H323        H  0.78411482  0.72671590  0.23474970     0.34800
H324        H  0.90208923  0.80987116  0.38834830     0.26600
H325        H  0.91985391  0.70662146  0.20308173     0.32500
H326        H  0.80364049  0.71967987  0.14649105     0.38400
H327        H  0.82407859  0.92866994  0.40123609     0.32900
H328        H  0.70015179  0.96314408  0.30613508     0.31700
H329        H  0.66809202  0.93734248  0.22404426     0.33400
H330        H  0.67571786  0.82915179  0.16953175     0.32400
H331        H  0.89640898  0.93669721  0.31232183     0.36400
H332        H  0.92747092  0.94161778  0.17231909     0.29100
H333        H  0.69525963  0.73192712  0.38003214     0.33300
H334        H  0.69600237  0.73566994  0.20896723     0.36200
H335        H  0.68754908  0.92183751  0.33572483     0.28800
H336        H  0.90904090  0.92020345  0.12837182     0.41700
H337        H  0.93820296  0.71118760  0.29211155     0.31700
H338        H  0.93217924  0.83669135  0.35455447     0.39400
H339        H  0.69513138  0.82197810  0.12115998     0.31200
H340        H  0.87069609  0.70319556  0.18571964     0.31300
H341        H  0.72508971  0.69376285  0.36346041     0.31500
N342        N  0.28916719  0.27733250  0.00307138    -0.03000
C343        C  0.31270067  0.29266022  0.03960362    -0.00400
C344        C  0.34817217  0.31750360  0.02277572    -0.23300
C345        C  0.34651301  0.31644460  0.97637302    -0.23500
C346        C  0.31001756  0.29079994  0.96340013    -0.00500
H347        H  0.37341117  0.33456253  0.04216757     0.13300
H348        H  0.37057362  0.33261219  0.95427275     0.13300
Zr349      Zr  0.23931825  0.24822552  0.81178758     2.17500
O350        O  0.19354499  0.21696073  0.87252449    -0.50800
O351        O  0.26173661  0.16730839  0.79766450    -0.74000
O352        O  0.15282459  0.24880588  0.79324612    -0.80800
O353        O  0.33526298  0.29627255  0.88763065    -0.82600
O354        O  0.14447351  0.28327033  0.72517301    -0.78200
O355        O  0.26627801  0.26401502  0.89389650    -0.89800
O356        O  0.27867295  0.16828572  0.72417846    -0.75800
O357        O  0.24474464  0.24081014  0.73112512    -0.85300
O358        O  0.31804258  0.24123713  0.79270444    -0.85000
O359        O  0.21449485  0.31575088  0.77546306    -0.71700
O360        O  0.28205434  0.31405321  0.82940912    -0.83900
Zr361      Zr  0.33448714  0.36883344  0.69324539     2.26400
Zr362      Zr  0.21859797  0.30735740  0.69514419     2.06300
Zr363      Zr  0.35914634  0.30802853  0.80909662     2.10000
Zr364      Zr  0.32246591  0.23407475  0.71305032     1.78800
O365        O  0.39352132  0.36317365  0.85700052    -0.92700
O366        O  0.30847820  0.20776454  0.63698377    -0.40500
O367        O  0.36149309  0.30150479  0.72897358    -0.77100
O368        O  0.29671150  0.29929254  0.67660637    -0.95800
O369        O  0.25722502  0.37422607  0.71567424    -0.89100
O370        O  0.33242364  0.37476542  0.77419254    -0.91900
C371        C  0.27447455  0.14713102  0.76113678     1.01800
C372        C  0.30229704  0.28178195  0.91214872     1.14800
C373        C  0.12711210  0.26353345  0.76020296     1.05500
O374        O  0.18995186  0.25135994  0.64458845    -0.94100
O375        O  0.23649128  0.32519217  0.61537161    -0.89800
O376        O  0.30526675  0.35832488  0.61048302    -0.83000
C377        C  0.26918617  0.34125003  0.59133120     1.12200
O378        O  0.21158987  0.38213090  0.86501546    -0.96100
Zr379      Zr  0.25585715  0.37988150  0.79611629     1.88900
O380        O  0.31110396  0.45120393  0.70722477    -0.72700
O381        O  0.16566450  0.36512351  0.67617685    -0.52000
O382        O  0.18380321  0.41514770  0.78611379    -0.96600
O383        O  0.29826959  0.41773222  0.85431743    -0.53900
O384        O  0.26838903  0.45250357  0.77034119    -0.73200
C385        C  0.28682693  0.47226512  0.73719050     0.99100
O386        O  0.38226715  0.41085202  0.64175832    -0.62000
O387        O  0.41085126  0.25066733  0.83262099    -0.56800
O388        O  0.42097876  0.35776328  0.70583609    -0.93500
O389        O  0.43274291  0.32400045  0.77376298    -0.92000
O390        O  0.38472423  0.19513683  0.74769288    -0.92300
O391        O  0.38487123  0.21078039  0.66666898    -0.91100
C392        C  0.44813752  0.34094855  0.73656643     1.18000
H393        H  0.33075722  0.21655021  0.80876376     0.33900
H394        H  0.30193447  0.29054513  0.64617734     0.44800
H395        H  0.34970355  0.40002512  0.78372595     0.38300
H396        H  0.18460848  0.32253011  0.78475095     0.34800
H397        H  0.30673959  0.17527266  0.63986325     0.26600
H398        H  0.17955166  0.38173422  0.65077732     0.32500
H399        H  0.18135802  0.42051026  0.75327858     0.38400
H400        H  0.37225150  0.16623467  0.75744113     0.32900
H401        H  0.43764193  0.26669487  0.84351853     0.31700
H402        H  0.42272535  0.35056283  0.86558191     0.33400
H403        H  0.29967508  0.39657454  0.87990211     0.32400
H404        H  0.40454448  0.23714154  0.66412330     0.36400
H405        H  0.40153610  0.42946482  0.66096892     0.29100
H406        H  0.17362452  0.19522784  0.85796515     0.33300
H407        H  0.22010256  0.35544907  0.88234721     0.36200
H408        H  0.39734573  0.23746590  0.86017248     0.28800
H409        H  0.40265423  0.38909764  0.62844770     0.41700
H410        H  0.16353920  0.26494405  0.63021645     0.31700
H411        H  0.27742783  0.21658483  0.63014478     0.39400
H412        H  0.27855718  0.44149134  0.86480629     0.31200
H413        H  0.13988679  0.34950602  0.66260010     0.31300
H414        H  0.17344727  0.24101021  0.88159216     0.31500
Zr415      Zr  0.24187729  0.87003129  0.81146587     2.17500
O416        O  0.19802854  0.91488243  0.86085415    -0.50800
O417        O  0.25871738  0.95294987  0.79398633    -0.74000
O418        O  0.26973368  0.86142217  0.89329741    -0.80800
O419        O  0.14005513  0.82390628  0.73455456    -0.82600
O420        O  0.33757481  0.82831328  0.88941726    -0.78200
O421        O  0.15767765  0.85315989  0.80254416    -0.89800
O422        O  0.30518669  0.95395615  0.73392538    -0.75800
O423        O  0.31954285  0.87390862  0.79063115    -0.85300
O424        O  0.24395516  0.87787285  0.73085590    -0.85000
O425        O  0.27624259  0.80002402  0.83142228    -0.71700
O426        O  0.21017514  0.80526307  0.77709369    -0.83900
Zr427      Zr  0.32843643  0.74765769  0.69938188     2.26400
Zr428      Zr  0.35409381  0.80543983  0.81198812     2.06300
Zr429      Zr  0.21285467  0.81220029  0.69731878     2.10000
Zr430      Zr  0.32122921  0.88089390  0.71049280     1.78800
O431        O  0.16311219  0.75413908  0.67058124    -0.92700
O432        O  0.39481602  0.91370059  0.72351243    -0.40500
O433        O  0.29092589  0.81520872  0.68086452    -0.77100
O434        O  0.35840977  0.81455229  0.73181684    -0.95800
O435        O  0.32211230  0.73994744  0.77975637    -0.89100
O436        O  0.24926556  0.74403821  0.71730383    -0.91900
C437        C  0.28332610  0.97424298  0.76399714     1.01800
C438        C  0.12830861  0.83779870  0.77363197     1.14800
C439        C  0.30558551  0.84534941  0.91249834     1.05500
O440        O  0.41415384  0.85731906  0.82936477    -0.94100
O441        O  0.42650302  0.78042876  0.78215912    -0.89800
O442        O  0.41617331  0.74722012  0.71467510    -0.83000
C443        C  0.44293203  0.76131773  0.74722490     1.12200
O444        O  0.19563068  0.73769441  0.86357246    -0.96100
Zr445      Zr  0.24371164  0.73714951  0.79728400     1.88900
O446        O  0.30503134  0.66602994  0.71698275    -0.72700
O447        O  0.37809003  0.74668924  0.86276275    -0.52000
O448        O  0.26980335  0.69456846  0.86204574    -0.96600
O449        O  0.16849108  0.71042896  0.78010398    -0.53900
O450        O  0.25220399  0.66390778  0.77197393    -0.73200
C451        C  0.27669420  0.64448605  0.74361561     0.99100
O452        O  0.36108700  0.70828902  0.63781970    -0.62000
O453        O  0.17493022  0.86728378  0.65130326    -0.56800
O454        O  0.30409677  0.77171301  0.61838113    -0.93500
O455        O  0.23853437  0.80942749  0.61894436    -0.92000
O456        O  0.28408005  0.90507489  0.64162497    -0.92300
O457        O  0.37019514  0.89114270  0.64543242    -0.91100
C458        C  0.27243921  0.79410725  0.59754511     1.18000
H459        H  0.22819825  0.90387081  0.72107305     0.33900
H460        H  0.38845587  0.82043292  0.72179450     0.44800
H461        H  0.23510925  0.71953929  0.70237372     0.38300
H462        H  0.27139325  0.79130065  0.86228334     0.34800
H463        H  0.39163397  0.94544174  0.71637539     0.26600
H464        H  0.39695087  0.76153610  0.88545363     0.32500
H465        H  0.28867425  0.67105292  0.84966468     0.38400
H466        H  0.26470964  0.92961189  0.65073505     0.32900
H467        H  0.14783773  0.85194047  0.64012794     0.31700
H468        H  0.15992528  0.76025084  0.63794312     0.33400
H469        H  0.17146480  0.69372359  0.75191635     0.32400
H470        H  0.36896628  0.92287295  0.63745566     0.36400
H471        H  0.38377699  0.68993068  0.65284334     0.29100
H472        H  0.22003250  0.93653857  0.87219506     0.33300
H473        H  0.17468954  0.76218643  0.85797145     0.36200
H474        H  0.16339525  0.88896638  0.67287957     0.28800
H475        H  0.33728219  0.68750342  0.62845528     0.41700
H476        H  0.40751509  0.86838993  0.85978407     0.31700
H477        H  0.39867600  0.91246596  0.75656323     0.39400
H478        H  0.15190031  0.73708950  0.77106026     0.31200
H479        H  0.35070205  0.73762876  0.87939480     0.31300
H480        H  0.19164101  0.89509695  0.88678440     0.31500
Zr481      Zr  0.83267651  0.25136968  0.80480113     2.17500
O482        O  0.87822238  0.20993970  0.85505395    -0.50800
O483        O  0.80888596  0.16783341  0.78778547    -0.74000
O484        O  0.80597584  0.26572761  0.88909394    -0.80800
O485        O  0.93207514  0.29273982  0.71916701    -0.82600
O486        O  0.73671410  0.29614481  0.88438679    -0.78200
O487        O  0.91889048  0.25853770  0.78644935    -0.89800
O488        O  0.76575052  0.16437560  0.72515507    -0.75800
O489        O  0.75552200  0.24493915  0.78415040    -0.85300
O490        O  0.83045626  0.24561229  0.72434901    -0.85000
O491        O  0.79699596  0.32078999  0.82191983    -0.71700
O492        O  0.86342843  0.31808484  0.76964243    -0.83900
Zr493      Zr  0.74049028  0.37227337  0.69180639     2.26400
Zr494      Zr  0.71889183  0.31201675  0.80539552     2.06300
Zr495      Zr  0.85842005  0.31269781  0.68974472     2.10000
Zr496      Zr  0.75385336  0.23881765  0.70386907     1.78800
O497        O  0.90948737  0.37281982  0.66935373    -0.92700
O498        O  0.68325605  0.20248843  0.72449613    -0.40500
O499        O  0.78067932  0.30627385  0.67167267    -0.77100
O500        O  0.71515472  0.30294990  0.72530457    -0.95800
O501        O  0.74786532  0.37900704  0.77168947    -0.89100
O502        O  0.81972888  0.37927875  0.70751604    -0.91900
C503        C  0.78526189  0.14511724  0.75772299     1.01800
C504        C  0.94689161  0.27279919  0.75457677     1.14800
C505        C  0.77015172  0.28309907  0.90830044     1.05500
O506        O  0.66628788  0.25726292  0.83536976    -0.94100
O507        O  0.64302270  0.32536311  0.77647781    -0.89800
O508        O  0.65417638  0.36063776  0.70913232    -0.83000
C509        C  0.62716259  0.34243400  0.73995554     1.12200
O510        O  0.86643279  0.39430748  0.85780739    -0.96100
Zr511      Zr  0.82650992  0.38542734  0.78702897     1.88900
O512        O  0.75259126  0.45447198  0.71907553    -0.72700
O513        O  0.69271117  0.37523764  0.84715758    -0.52000
O514        O  0.79337370  0.43023493  0.84548619    -0.96600
O515        O  0.90391162  0.40983544  0.77700492    -0.53900
O516        O  0.82110379  0.45570988  0.75037805    -0.73200
C517        C  0.78565923  0.47581609  0.73927739     0.99100
O518        O  0.69403726  0.40574495  0.63483141    -0.62000
O519        O  0.89199898  0.26182977  0.63702377    -0.56800
O520        O  0.77012876  0.35937964  0.60924260    -0.93500
O521        O  0.83685791  0.32378112  0.61175302    -0.92000
O522        O  0.79526454  0.20373727  0.64360361    -0.92300
O523        O  0.70528872  0.23643574  0.63792716    -0.91100
C524        C  0.80447974  0.34052599  0.58915812     1.18000
H525        H  0.84740543  0.22053015  0.71475562     0.33900
H526        H  0.68623952  0.29374561  0.71484727     0.44800
H527        H  0.83267200  0.40376051  0.69078555     0.38300
H528        H  0.80235579  0.33100385  0.85183018     0.34800
H529        H  0.65918187  0.22203776  0.71368651     0.26600
H530        H  0.67407775  0.39218089  0.82569907     0.32500
H531        H  0.76670580  0.44366163  0.83147549     0.38400
H532        H  0.80745543  0.22843247  0.62508343     0.32900
H533        H  0.91811652  0.27800711  0.62424002     0.31700
H534        H  0.92664631  0.36170761  0.64343681     0.33400
H535        H  0.90556315  0.42134754  0.74572266     0.32400
H536        H  0.72513548  0.23890046  0.61130232     0.36400
H537        H  0.71469729  0.42749559  0.62109690     0.29100
H538        H  0.88315209  0.18341732  0.83718908     0.33300
H539        H  0.87944817  0.36505636  0.86422963     0.36200
H540        H  0.90511457  0.23815417  0.65583136     0.28800
H541        H  0.68961022  0.38310921  0.61156702     0.41700
H542        H  0.64671613  0.27384611  0.85585365     0.31700
H543        H  0.68105756  0.17641280  0.70498067     0.39400
H544        H  0.92179439  0.38261631  0.77672790     0.31200
H545        H  0.67112702  0.36270295  0.86928320     0.31300
H546        H  0.85674857  0.20062984  0.87858552     0.31500
Zr547      Zr  0.83850634  0.86849270  0.81795577     2.17500
O548        O  0.86363996  0.92702650  0.86665903    -0.50800
O549        O  0.92497037  0.85919493  0.81172777    -0.74000
O550        O  0.83803401  0.83932617  0.90019677    -0.80800
O551        O  0.77991961  0.94798961  0.72797934    -0.82600
O552        O  0.81989685  0.76613110  0.90154175    -0.78200
O553        O  0.81517756  0.94969532  0.79563735    -0.89800
O554        O  0.94284443  0.81846586  0.75080618    -0.75800
O555        O  0.85876892  0.79356854  0.80464984    -0.85300
O556        O  0.85106400  0.86162446  0.73848570    -0.85000
O557        O  0.77505846  0.82051524  0.83925001    -0.71700
O558        O  0.76802760  0.88052150  0.77938632    -0.83900
Zr559      Zr  0.73970206  0.75023331  0.70982617     2.26400
Zr560      Zr  0.79731116  0.74569036  0.82600379     2.06300
Zr561      Zr  0.78068366  0.87297686  0.70052462     2.10000
Zr562      Zr  0.87216957  0.78717791  0.72617729     1.78800
O563        O  0.71620210  0.90728552  0.66520074    -0.92700
O564        O  0.91920385  0.72938789  0.75776264    -0.40500
O565        O  0.80186479  0.79869988  0.69013827    -0.77100
O566        O  0.81139810  0.73885810  0.74715527    -0.95800
O567        O  0.72750413  0.75858493  0.78879187    -0.89100
O568        O  0.71827818  0.82554851  0.72089029    -0.91900
C569        C  0.95455549  0.84031510  0.78549815     1.01800
C570        C  0.79381311  0.96955755  0.76223717     1.14800
C571        C  0.83150745  0.80159385  0.92173310     1.05500
O572        O  0.85749599  0.69904216  0.85320482    -0.94100
O573        O  0.78907601  0.66893010  0.80220129    -0.89800
O574        O  0.75638167  0.66885282  0.73306310    -0.83000
C575        C  0.77483926  0.64804333  0.76742797     1.12200
O576        O  0.69424550  0.87412984  0.86904051    -0.96100
Zr577      Zr  0.70605310  0.83330957  0.79998752     1.88900
O578        O  0.65292208  0.75430343  0.72612706    -0.72700
O579        O  0.73883684  0.71493228  0.87459623    -0.52000
O580        O  0.66522618  0.78908852  0.85584103    -0.96600
O581        O  0.66682680  0.90068740  0.77974750    -0.53900
O582        O  0.63353458  0.81011756  0.77177392    -0.73200
C583        C  0.62220656  0.77714790  0.74783616     0.99100
O584        O  0.71423652  0.69187474  0.66168806    -0.62000
O585        O  0.83142333  0.91643404  0.65269962    -0.56800
O586        O  0.75926572  0.77224522  0.62651928    -0.93500
O587        O  0.78254154  0.84391827  0.62465408    -0.92000
O588        O  0.90490051  0.81917066  0.65794714    -0.92300
O589        O  0.88376721  0.73233073  0.66830702    -0.91100
C590        C  0.77517598  0.80720711  0.60477395     1.18000
H591        H  0.87391395  0.88211346  0.72814539     0.33900
H592        H  0.82356197  0.71067821  0.73977763     0.44800
H593        H  0.69196197  0.83278642  0.70363505     0.38300
H594        H  0.76655204  0.82410157  0.87026062     0.34800
H595        H  0.90080067  0.70211277  0.75726301     0.26600
H596        H  0.75407401  0.69208828  0.89283018     0.32500
H597        H  0.63730000  0.80530944  0.86160361     0.38400
H598        H  0.93498412  0.80606084  0.65580474     0.32900
H599        H  0.84549071  0.93847051  0.67259233     0.31700
H600        H  0.72917663  0.93007941  0.64475343     0.33400
H601        H  0.68938168  0.92459404  0.78262698     0.32400
H602        H  0.85411938  0.72861174  0.65395891     0.36400
H603        H  0.68144396  0.69454068  0.66179005     0.29100
H604        H  0.83655420  0.94335828  0.87532716     0.33300
H605        H  0.71928046  0.89572525  0.86983618     0.36200
H606        H  0.85598913  0.89622970  0.64518214     0.28800
H607        H  0.72391458  0.70016295  0.63091030     0.41700
H608        H  0.88409842  0.71869846  0.85439415     0.31700
H609        H  0.94288472  0.72478134  0.73503980     0.39400
H610        H  0.64532760  0.90561038  0.80450222     0.31200
H611        H  0.73226442  0.73854588  0.89617524     0.31300
H612        H  0.88152620  0.94768241  0.84769532     0.31500
N613        N  0.53395018  0.76421600  0.72638747    -0.03000
C614        C  0.57152548  0.76269841  0.75468488    -0.00400
C615        C  0.55651698  0.75165834  0.79725419    -0.23300
C616        C  0.51070871  0.74588394  0.79567464    -0.23500
C617        C  0.49537333  0.75380813  0.75212863    -0.00500
H618        H  0.57683427  0.74926462  0.82726388     0.13300
H619        H  0.48993820  0.73887607  0.82484995     0.13300
N620        N  0.29383833  0.56031700  0.73078488    -0.03000
C621        C  0.27138347  0.52088346  0.73670528    -0.00400
C622        C  0.23056615  0.53118800  0.75650511    -0.23300
C623        C  0.22842298  0.57616970  0.76158279    -0.23500
C624        C  0.26765128  0.59426835  0.74459065    -0.00500
H625        H  0.20496482  0.50801171  0.76763480     0.13300
H626        H  0.20062805  0.59375342  0.77586407     0.13300
N627        N  0.53840707  0.35808402  0.72818032    -0.03000
C628        C  0.57593552  0.33135837  0.73219012    -0.00400
C629        C  0.56030808  0.28850032  0.73625212    -0.23300
C630        C  0.51398504  0.28873276  0.73410240    -0.23500
C631        C  0.49949085  0.33175227  0.72885967    -0.00500
H632        H  0.58057782  0.25966961  0.74191603     0.13300
H633        H  0.49260354  0.25997596  0.73838052     0.13300
N634        N  0.77106265  0.56370052  0.74199637    -0.03000
C635        C  0.78681706  0.52391127  0.75763768    -0.00400
C636        C  0.81226763  0.53387551  0.79542912    -0.23300
C637        C  0.81070159  0.57881143  0.80271191    -0.23500
C638        C  0.78463828  0.59758445  0.76931681    -0.00500
H639        H  0.83070237  0.51070587  0.81599061     0.13300
H640        H  0.82720758  0.59588136  0.82986806     0.13300
N641        N  0.53583022  0.36932268  0.27893668    -0.03000
C642        C  0.57605723  0.37470217  0.25359170    -0.00400
C643        C  0.56231289  0.38216956  0.20954623    -0.23300
C644        C  0.51634710  0.38049432  0.20698944    -0.23500
C645        C  0.49885280  0.37230940  0.24936879    -0.00500
H646        H  0.58411501  0.38690434  0.18071884     0.13300
H647        H  0.49735488  0.38414559  0.17621629     0.13300
N648        N  0.79196750  0.57973831  0.28395364    -0.03000
C649        C  0.81146350  0.54233238  0.26683629    -0.00400
C650        C  0.85005757  0.55716047  0.24514648    -0.23300
C651        C  0.85379366  0.60238800  0.25006122    -0.23500
C652        C  0.81748891  0.61718108  0.27473934    -0.00500
H653        H  0.87378821  0.53709686  0.22737921     0.13300
H654        H  0.88088819  0.62245597  0.23648757     0.13300
N655        N  0.55335750  0.80222918  0.29984047    -0.03000
C656        C  0.59129889  0.83047493  0.30108611    -0.00400
C657        C  0.57497218  0.87227426  0.30805250    -0.23300
C658        C  0.52896001  0.87028684  0.31123893    -0.23500
C659        C  0.51414427  0.82717898  0.30614237    -0.00500
H660        H  0.59477720  0.90218588  0.31054457     0.13300
H661        H  0.50793212  0.89865241  0.31583160     0.13300
N662        N  0.29777925  0.57347005  0.27542210    -0.03000
C663        C  0.27812067  0.53820732  0.25401740    -0.00400
C664        C  0.24818555  0.55678851  0.22380800    -0.23300
C665        C  0.25032618  0.60235361  0.22762012    -0.23500
C666        C  0.28175963  0.61346911  0.26021259    -0.00500
H667        H  0.22641035  0.53917059  0.20106333     0.13300
H668        H  0.23007433  0.62513377  0.20841549     0.13300
N669        N  0.77601346  0.79603358  0.51546737    -0.03000
C670        C  0.80271147  0.81064949  0.48054771    -0.00400
C671        C  0.83872068  0.83236867  0.50016685    -0.23300
C672        C  0.83337635  0.83060193  0.54642422    -0.23500
C673        C  0.79421050  0.80757888  0.55624595    -0.00500
H674        H  0.86605276  0.84889566  0.48269835     0.13300
H675        H  0.85547903  0.84597150  0.57051512     0.13300
N676        N  0.79498059  0.35627671  0.50030037    -0.03000
C677        C  0.81226346  0.33943682  0.46096742    -0.00400
C678        C  0.83936326  0.30479924  0.47437857    -0.23300
C679        C  0.83813398  0.30102242  0.52092891    -0.23500
C680        C  0.81022708  0.33321212  0.53735481    -0.00500
H681        H  0.85842746  0.28387208  0.45248201     0.13300
H682        H  0.85639369  0.27711354  0.54075621     0.13300
N683        N  0.29296827  0.79051335  0.50993568    -0.03000
C684        C  0.29027898  0.81810000  0.47305322    -0.00400
C685        C  0.26876406  0.85559900  0.48793143    -0.23300
C686        C  0.25917616  0.85031744  0.53347043    -0.23500
C687        C  0.27514389  0.80979070  0.54748631    -0.00500
H688        H  0.26107517  0.88453165  0.46792771     0.13300
H689        H  0.24326021  0.87444450  0.55443187     0.13300
N690        N  0.28652368  0.34911888  0.50159545    -0.03000
C691        C  0.26522012  0.33651172  0.46223155    -0.00400
C692        C  0.22745618  0.31279599  0.47646382    -0.23300
C693        C  0.22567701  0.31191748  0.52296047    -0.23500
C694        C  0.26227059  0.33492715  0.53911403    -0.00500
H695        H  0.20242111  0.29785619  0.45515328     0.13300
H696        H  0.19952847  0.29621016  0.54287545     0.13300
O697        O  0.89282487  0.02473248  0.96193221    -0.86000
O698        O  0.14328222  0.99206823  0.99063774    -0.86100
O699        O  0.02685630  0.98403663  0.88645125    -0.87800
O700        O  0.01754708  0.91937481  0.01588690    -0.86600
O701        O  0.01841818  0.94817510  0.08740217    -0.86200
O702        O  0.03702541  0.05444502  0.85848753    -0.87500
O703        O  0.09322452  0.94543258  0.95768213    -0.86000
O704        O  0.95069153  0.99319151  0.92961583    -0.85600
Zr705      Zr  0.02330029  0.98483337  0.96698307     2.84300
O706        O  0.06468190  0.00498578  0.02999600    -1.07600
O707        O  0.98682219  0.04834148  0.94568781    -1.08300
C708        C  0.91129387  0.99070014  0.94635784     1.07100
C709        C  0.13260244  0.95547602  0.97215478     1.07100
C710        C  0.03311061  0.01228519  0.85426621     1.10100
C711        C  0.02197513  0.91641640  0.05916960     1.07800
H712        H  0.09353645  0.03036322  0.92247470     0.33400
O713        O  0.07365931  0.04062721  0.94554381    -1.28500
H714        H  0.95895613  0.98140775  0.03181291     0.33100
O715        O  0.97740825  0.00700125  0.02540725    -1.30200
O716        O  0.15180940  0.12712707  0.02599971    -0.86000
O717        O  0.90622230  0.13748381  0.03020742    -0.87500
O718        O  0.10760426  0.11949223  0.89460581    -0.86100
O719        O  0.09051440  0.01752108  0.12856155    -0.86100
O720        O  0.93916320  0.01856533  0.11142562    -0.85800
O721        O  0.96951056  0.11994293  0.88187225    -0.85600
O722        O  0.03148429  0.21152962  0.99108581    -0.86000
O723        O  0.02867039  0.14234249  0.12460708    -0.85500
O724        O  0.04833682  0.18265048  0.92219869    -0.86500
O725        O  0.02317846  0.07231436  0.15506290    -0.85700
O726        O  0.15467065  0.08325003  0.94211943    -0.86100
O727        O  0.91642314  0.09310612  0.92989027    -0.85800
O728        O  0.89785971  0.02090690  0.04725385    -0.85400
O729        O  0.14346082  0.04273369  0.07863197    -0.85900
O730        O  0.10372278  0.17793932  0.05379147    -0.86100
O731        O  0.96019165  0.18394196  0.05715543    -0.87500
Zr732      Zr  0.11224067  0.06174298  0.00832607     2.83100
Zr733      Zr  0.94031273  0.07168408  0.00217531     2.83500
Zr734      Zr  0.03520905  0.10385815  0.92313358     2.84100
Zr735      Zr  0.01835230  0.02757496  0.08856665     2.83400
Zr736      Zr  0.02915062  0.14731687  0.04286680     2.84200
O737        O  0.97907782  0.09107197  0.06642390    -1.08100
O738        O  0.07588028  0.12423404  0.98520633    -1.07600
C739        C  0.14280459  0.16517201  0.04135963     1.07100
C740        C  0.91965170  0.17417812  0.04691022     1.09700
C741        C  0.14563115  0.10389664  0.90511174     1.07300
C742        C  0.13138641  0.02775551  0.11726970     1.07600
C743        C  0.90159023  0.01739315  0.08963152     1.07200
C744        C  0.92962308  0.10783523  0.89172971     1.06800
C745        C  0.03986822  0.21502785  0.94839172     1.07200
C746        C  0.02933685  0.11418157  0.15779726     1.06700
H747        H  0.97042251  0.15323580  0.96904185     0.33400
O748        O  0.98752648  0.12860451  0.97968901    -1.29200
H749        H  0.08539523  0.09465385  0.09074801     0.33400
O750        O  0.06688885  0.08518738  0.06616103    -1.30500
O751        O  0.53350643  0.71514247  0.51907637    -0.86000
O752        O  0.54561096  0.48658827  0.61772337    -0.86100
O753        O  0.46174386  0.61395104  0.61547520    -0.87800
O754        O  0.60251662  0.61484719  0.62298934    -0.86600
O755        O  0.65393925  0.58846777  0.57395222    -0.86200
O756        O  0.41267571  0.58025860  0.56849848    -0.87500
O757        O  0.53518715  0.55369457  0.65034393    -0.86000
O758        O  0.53411760  0.68059222  0.58817295    -0.85600
Zr759      Zr  0.53353894  0.60122201  0.58542827     2.84300
O760        O  0.58221365  0.54682401  0.56173790    -1.07600
O761        O  0.48722358  0.62373633  0.52822799    -1.08300
C762        C  0.53678266  0.71501925  0.56216277     1.07100
C763        C  0.54331515  0.51240766  0.65192037     1.07100
C764        C  0.42266900  0.60063541  0.60462020     1.10100
C765        C  0.64187008  0.60231329  0.61260642     1.07800
H766        H  0.47578077  0.52639728  0.58677150     0.33400
O767        O  0.49448587  0.53838843  0.56295311    -1.28500
H768        H  0.59443317  0.65419527  0.53953721     0.33100
O769        O  0.57647840  0.63048536  0.52783400    -1.30200
O770        O  0.54014224  0.42378173  0.48629260    -0.86000
O771        O  0.51876996  0.66125741  0.39007618    -0.87500
O772        O  0.42323574  0.49001619  0.51968487    -0.86100
O773        O  0.66902269  0.51682327  0.52073284    -0.86100
O774        O  0.65184480  0.64594345  0.48403471    -0.85800
O775        O  0.40433341  0.61851449  0.48271777    -0.85600
O776        O  0.47099750  0.52090683  0.38268915    -0.86000
O777        O  0.61003492  0.52817547  0.38272873    -0.85500
O778        O  0.41881092  0.54214445  0.43370230    -0.86500
O779        O  0.65905584  0.55843587  0.43293417    -0.85700
O780        O  0.47565664  0.44343996  0.54843962    -0.86100
O781        O  0.45308039  0.67677545  0.47308318    -0.85800
O782        O  0.59888420  0.69239365  0.45593820    -0.85400
O783        O  0.62059509  0.46069811  0.54134203    -0.85900
O784        O  0.54006162  0.45863897  0.41705875    -0.86100
O785        O  0.54093140  0.59627436  0.35870654    -0.87500
Zr786      Zr  0.54367217  0.48570208  0.53641279     2.83100
Zr787      Zr  0.52962774  0.65287037  0.46945857     2.83500
Zr788      Zr  0.45218290  0.56089402  0.50252826     2.84100
Zr789      Zr  0.62206406  0.57590999  0.50179173     2.83400
Zr790      Zr  0.53961133  0.53872813  0.41788716     2.84200
O791        O  0.57895044  0.60026807  0.44238032    -1.08100
O792        O  0.49841899  0.50746349  0.47657676    -1.07600
C793        C  0.53737658  0.42406720  0.44311433     1.07100
C794        C  0.53143785  0.63773627  0.35691426     1.09700
C795        C  0.43561926  0.45309428  0.53643784     1.07300
C796        C  0.65968378  0.47700498  0.53188089     1.07600
C797        C  0.63896497  0.68295199  0.46799912     1.07200
C798        C  0.41400687  0.65934405  0.47915860     1.06800
C799        C  0.43111970  0.52985912  0.39470245     1.07200
C800        C  0.64887628  0.54148811  0.39484263     1.06700
H801        H  0.47082067  0.60219071  0.41953319     0.33400
O802        O  0.49093762  0.59234247  0.44283163    -1.29200
H803        H  0.60515954  0.49373479  0.46441295     0.33400
O804        O  0.58467726  0.51493496  0.47606679    -1.30500
C805        C  0.32508055  0.37568527  0.50582814    -0.04800
C806        C  0.36741717  0.35633996  0.50251898    -0.01900
C807        C  0.40511317  0.37871987  0.51914417     0.03000
C808        C  0.39957310  0.42041510  0.53846793    -0.04800
C809        C  0.35623277  0.43685557  0.54561974    -0.01900
C810        C  0.31957804  0.41623156  0.52650719     0.03000
C811        C  0.37159598  0.31346125  0.48234114     0.37700
C812        C  0.34947698  0.47508895  0.57303838     0.37700
C813        C  0.27537041  0.43533849  0.52995054     0.36100
C814        C  0.44891605  0.35907243  0.51619743     0.36100
N815        N  0.24012317  0.45041381  0.53274385    -0.38700
N816        N  0.48367453  0.34282260  0.51443908    -0.38700
N817        N  0.34393408  0.50491391  0.59584196    -0.38200
N818        N  0.37480735  0.27931960  0.46592802    -0.38200
C819        C  0.37905107  0.68887528  0.49052306    -0.04800
C820        C  0.38778054  0.71854762  0.52535584    -0.01900
C821        C  0.35925371  0.75298445  0.53167007     0.03000
C822        C  0.31796682  0.75213242  0.51004992    -0.04800
C823        C  0.30484748  0.71737545  0.48227995    -0.01900
C824        C  0.33658571  0.68637653  0.47049696     0.03000
C825        C  0.42192121  0.71076597  0.55868382     0.37700
C826        C  0.26000324  0.71572826  0.46387682     0.37700
C827        C  0.32568372  0.65276378  0.43822920     0.36100
C828        C  0.37337583  0.79047247  0.55807475     0.36100
N829        N  0.31648929  0.62596889  0.41253229    -0.38700
N830        N  0.38367098  0.82035553  0.57959715    -0.38700
N831        N  0.22418479  0.71432366  0.44924900    -0.38200
N832        N  0.44590192  0.70486567  0.58847448    -0.38200
C833        C  0.76331716  0.38957033  0.50365742    -0.04800
C834        C  0.72045714  0.38146624  0.48732992    -0.01900
C835        C  0.68792279  0.41249882  0.49406306     0.03000
C836        C  0.69540171  0.44628688  0.52522047    -0.04800
C837        C  0.73895703  0.45475713  0.54126684    -0.01900
C838        C  0.77352838  0.42707557  0.52873164     0.03000
C839        C  0.70983622  0.34097424  0.46416329     0.37700
C840        C  0.74870342  0.49126912  0.57028165     0.37700
C841        C  0.81933311  0.43621344  0.54208051     0.36100
C842        C  0.65355525  0.41607959  0.46036194     0.36100
N843        N  0.85587280  0.44340417  0.55272530    -0.38700
N844        N  0.62982404  0.41995529  0.43005405    -0.38700
N845        N  0.75830959  0.51931322  0.59428667    -0.38200
N846        N  0.70182819  0.30843223  0.44592016    -0.38200
C847        C  0.74023745  0.76714165  0.50826084    -0.04800
C848        C  0.69705758  0.78390511  0.50648618    -0.01900
C849        C  0.66291829  0.75853857  0.48770304     0.03000
C850        C  0.67334343  0.71696944  0.46946232    -0.04800
C851        C  0.71833500  0.70260184  0.46810101    -0.01900
C852        C  0.75081948  0.72623581  0.49064337     0.03000
C853        C  0.68836307  0.82724346  0.52415867     0.37700
C854        C  0.73118284  0.66211212  0.44617291     0.37700
C855        C  0.79617888  0.70980998  0.49435825     0.36100
C856        C  0.61767969  0.77514985  0.48909784     0.36100
N857        N  0.83230853  0.69687046  0.49746768    -0.38700
N858        N  0.58232312  0.79022495  0.48949860    -0.38700
N859        N  0.74219327  0.62996113  0.42917606    -0.38200
N860        N  0.68145483  0.86176789  0.53841156    -0.38200
C861        C  0.33144095  0.56707932  0.30646338    -0.04800
C862        C  0.37514554  0.56712111  0.29027860    -0.01900
C863        C  0.40882520  0.55142267  0.31782406     0.03000
C864        C  0.39719740  0.53327113  0.36064149    -0.04800
C865        C  0.35187192  0.52993454  0.37454406    -0.01900
C866        C  0.31923796  0.54827077  0.34768052     0.03000
C867        C  0.38437927  0.58152813  0.24425817     0.37700
C868        C  0.33852173  0.50843808  0.41655702     0.37700
C869        C  0.27240691  0.54624290  0.36078420     0.36100
C870        C  0.45462410  0.55584847  0.30187815     0.36100
N871        N  0.23498986  0.54475822  0.37074334    -0.38700
N872        N  0.49061017  0.55897818  0.28770150    -0.38700
N873        N  0.32770222  0.49101082  0.44972848    -0.38200
N874        N  0.39160284  0.59333327  0.20772978    -0.38200
C875        C  0.55542773  0.75489989  0.29922889    -0.04800
C876        C  0.58537960  0.73303178  0.32807372    -0.01900
C877        C  0.58658262  0.68706451  0.32857084     0.03000
C878        C  0.54657842  0.66468393  0.31849331    -0.04800
C879        C  0.51542666  0.68582738  0.29007257    -0.01900
C880        C  0.52395630  0.72945777  0.27541072     0.03000
C881        C  0.60580844  0.75683825  0.36446396     0.37700
C882        C  0.47125299  0.66761685  0.28389594     0.37700
C883        C  0.49899748  0.74835505  0.23846654     0.36100
C884        C  0.62147520  0.66420399  0.35289210     0.36100
N885        N  0.47968190  0.76283928  0.20811122    -0.38700
N886        N  0.64854837  0.64499901  0.37241266    -0.38700
N887        N  0.43472927  0.65560450  0.27992531    -0.38200
N888        N  0.62138062  0.77801051  0.39248744    -0.38200
C889        C  0.75548967  0.57645606  0.31296453    -0.04800
C890        C  0.71265949  0.57897887  0.29458021    -0.01900
C891        C  0.67649544  0.56187825  0.31904358     0.03000
C892        C  0.68436220  0.54226135  0.36176484    -0.04800
C893        C  0.72829553  0.53647010  0.37747763    -0.01900
C894        C  0.76347671  0.55640690  0.35458060     0.03000
C895        C  0.70660622  0.59836195  0.25014475     0.37700
C896        C  0.73792841  0.50878183  0.41601125     0.37700
C897        C  0.80890781  0.55389246  0.37170583     0.36100
C898        C  0.63189853  0.56596407  0.30048415     0.36100
N899        N  0.84526169  0.55212104  0.38483415    -0.38700
N900        N  0.59684197  0.56959054  0.28455737    -0.38700
N901        N  0.74818156  0.48589089  0.44542370    -0.38200
N902        N  0.70185141  0.61390209  0.21472144    -0.38200
C903        C  0.53044680  0.37004239  0.32736973    -0.04800
C904        C  0.55705468  0.34493519  0.35744082    -0.01900
C905        C  0.55484717  0.35401411  0.40417177     0.03000
C906        C  0.52302865  0.38389028  0.41966484    -0.04800
C907        C  0.48689109  0.39312318  0.39185653    -0.01900
C908        C  0.49665408  0.39660854  0.34595238     0.03000
C909        C  0.58533146  0.31048329  0.34103601     0.37700
C910        C  0.44928704  0.41533817  0.41183345     0.37700
C911        C  0.47968007  0.43360557  0.32053994     0.36100
C912        C  0.58189700  0.33121831  0.43699158     0.36100
N913        N  0.46628470  0.46206414  0.29841831    -0.38700
N914        N  0.60234830  0.31298097  0.46433175    -0.38700
N915        N  0.42094651  0.43313448  0.43053966    -0.38200
N916        N  0.60736528  0.28225917  0.32810971    -0.38200
C917        C  0.73928341  0.56982208  0.70829802    -0.04800
C918        C  0.75320212  0.58737024  0.66696285    -0.01900
C919        C  0.72124183  0.60122038  0.63606670     0.03000
C920        C  0.67524505  0.59873890  0.64799967    -0.04800
C921        C  0.66218306  0.58373805  0.69165559    -0.01900
C922        C  0.69449692  0.56819848  0.72110973     0.03000
C923        C  0.80060898  0.59102278  0.65679952     0.37700
C924        C  0.61636001  0.58337532  0.70762436     0.37700
C925        C  0.68239805  0.55183477  0.76578504     0.36100
C926        C  0.73610643  0.61749288  0.59217423     0.36100
N927        N  0.67296782  0.53884845  0.80138947    -0.38700
N928        N  0.74803624  0.62937838  0.55694295    -0.38700
N929        N  0.58109126  0.58430517  0.72366806    -0.38200
N930        N  0.83840235  0.59379119  0.64865525    -0.38200
C931        C  0.54281829  0.40429371  0.71871859    -0.04800
C932        C  0.57717301  0.41821169  0.68902760    -0.01900
C933        C  0.59054616  0.46213610  0.68915316     0.03000
C934        C  0.55580463  0.49176505  0.69480663    -0.04800
C935        C  0.52204876  0.48086260  0.72599017    -0.01900
C936        C  0.51727088  0.43663201  0.74063751     0.03000
C937        C  0.58964207  0.39085448  0.65150266     0.37700
C938        C  0.49376801  0.51490571  0.74312773     0.37700
C939        C  0.48603532  0.42537919  0.77613103     0.36100
C940        C  0.63104051  0.47696652  0.66644755     0.36100
N941        N  0.46070187  0.41777494  0.80473155    -0.38700
N942        N  0.66280487  0.49045534  0.64850940    -0.38700
N943        N  0.47169345  0.54202848  0.75813155    -0.38200
N944        N  0.59868943  0.36916204  0.62116912    -0.38200
C945        C  0.32739864  0.56934992  0.69931009    -0.04800
C946        C  0.36851742  0.58530861  0.71492326    -0.01900
C947        C  0.39875381  0.60376427  0.68423631     0.03000
C948        C  0.38745067  0.60423203  0.63793200    -0.04800
C949        C  0.34285895  0.59661858  0.62443698    -0.01900
C950        C  0.31317567  0.57789860  0.65512971     0.03000
C951        C  0.37754020  0.58594843  0.76289370     0.37700
C952        C  0.32767521  0.60561870  0.57883596     0.37700
C953        C  0.26681992  0.56993614  0.64253887     0.36100
C954        C  0.44027254  0.62297043  0.70062033     0.36100
N955        N  0.22967104  0.56419413  0.63321020    -0.38700
N956        N  0.47325728  0.63854335  0.71356333    -0.38700
N957        N  0.31452492  0.61150153  0.54270060    -0.38200
N958        N  0.38456418  0.58718325  0.80114758    -0.38200
C959        C  0.53905252  0.76410589  0.67801648    -0.04800
C960        C  0.57439131  0.73959157  0.65957969    -0.01900
C961        C  0.58618208  0.74564322  0.61448405     0.03000
C962        C  0.55077512  0.75508985  0.58561124    -0.04800
C963        C  0.51748123  0.78320761  0.60119817    -0.01900
C964        C  0.51253535  0.78945676  0.64820338     0.03000
C965        C  0.59228596  0.70282997  0.68452933     0.37700
C966        C  0.49133201  0.80657976  0.56813655     0.37700
C967        C  0.48176282  0.82144941  0.66501270     0.36100
C968        C  0.62546336  0.72492813  0.59598225     0.36100
N969        N  0.45767589  0.84796137  0.67794060    -0.38700
N970        N  0.65579833  0.70796627  0.57975001    -0.38700
N971        N  0.47223656  0.82548253  0.54026485    -0.38200
N972        N  0.60667914  0.67508556  0.70687236    -0.38200
C973        C  0.25175855  0.24922546  0.00878170    -0.04800
C974        C  0.20945576  0.26792580  0.01397759    -0.01900
C975        C  0.17321477  0.24147303  0.02797229     0.03000
C976        C  0.18043035  0.19674578  0.03946833    -0.04800
C977        C  0.22466007  0.18038810  0.04016173    -0.01900
C978        C  0.25977847  0.20610202  0.02307707     0.03000
C979        C  0.20466077  0.31513051  0.00863331     0.37700
C980        C  0.23466856  0.13737492  0.05885334     0.37700
C981        C  0.30515260  0.18941065  0.02224978     0.36100
C982        C  0.12930828  0.26078275  0.03127393     0.36100
N983        N  0.34134535  0.17634439  0.02143313    -0.38700
N984        N  0.09431258  0.27632884  0.03442905    -0.38700
N985        N  0.24356317  0.10302122  0.07301655    -0.38200
N986        N  0.20130137  0.35295184  0.00539460    -0.38200
C987        C  0.16917217  0.02643452  0.14954844    -0.04800
C988        C  0.21293360  0.02238679  0.13117442    -0.01900
C989        C  0.24996059  0.03833548  0.15417161     0.03000
C990        C  0.24493063  0.05526059  0.19732515    -0.04800
C991        C  0.20271975  0.05557886  0.21820107    -0.01900
C992        C  0.16451972  0.04101011  0.19440456     0.03000
C993        C  0.22086192  0.00312432  0.08756970     0.37700
C994        C  0.19909822  0.07130228  0.26381051     0.37700
C995        C  0.12103939  0.04196695  0.21585200     0.36100
C996        C  0.29418326  0.03677998  0.13358976     0.36100
N997        N  0.08659113  0.04203985  0.23365655    -0.38700
N998        N  0.32935849  0.03508948  0.11743199    -0.38700
N999        N  0.19656764  0.08413229  0.30020368    -0.38200
N1000       N  0.22895256  0.98842199  0.05293259    -0.38200
C1001       C  0.04101513  0.22022837  0.22666930    -0.04800
C1002       C  0.07285251  0.20588764  0.19529684    -0.01900
C1003       C  0.08199584  0.16128221  0.19269180     0.03000
C1004       C  0.04550328  0.13293811  0.20010421    -0.04800
C1005       C  0.01456659  0.14409028  0.23350642    -0.01900
C1006       C  0.01399555  0.18801112  0.24918639     0.03000
C1007       C  0.08663102  0.23494330  0.15878273     0.37700
C1008       C  0.98489325  0.11024379  0.25139817     0.37700
C1009       C  0.98587675  0.19924673  0.28672357     0.36100
C1010       C  0.12045689  0.14617394  0.16776716     0.36100
N1011       N  0.96336999  0.20712683  0.31721039    -0.38700
N1012       N  0.15121502  0.13359508  0.14833080    -0.38700
N1013       N  0.96160636  0.08269906  0.26563383    -0.38200
N1014       N  0.09624392  0.25932356  0.13008922    -0.38200
C1015       C  0.86233901  0.03152276  0.11288086    -0.04800
C1016       C  0.85778858  0.07656923  0.11042874    -0.01900
C1017       C  0.84397540  0.09347445  0.15081298     0.03000
C1018       C  0.80966595  0.06983832  0.17411440    -0.04800
C1019       C  0.79289321  0.03127214  0.15287699    -0.01900
C1020       C  0.82314504  0.00814388  0.12516545     0.03000
C1021       C  0.83413331  0.08970810  0.07002825     0.37700
C1022       C  0.74806401  0.01550008  0.16202381     0.37700
C1023       C  0.81340827  0.96474761  0.10887104     0.36100
C1024       C  0.87852870  0.11722487  0.17424211     0.36100
N1025       N  0.80487077  0.93000609  0.09587917    -0.38700
N1026       N  0.90706591  0.13571435  0.19246603    -0.38700
N1027       N  0.71160486  0.00401151  0.16860039    -0.38200
N1028       N  0.81505689  0.09760786  0.03708064    -0.38200
C1029       C  0.05666477  0.84490451  0.16689288    -0.04800
C1030       C  0.02847551  0.82143584  0.13764969    -0.01900
C1031       C  0.01708585  0.84109505  0.09603122     0.03000
C1032       C  0.04260437  0.87738449  0.07998806    -0.04800
C1033       C  0.08195439  0.88825360  0.10362296    -0.01900
C1034       C  0.08231294  0.88011089  0.14971179     0.03000
C1035       C  0.00964049  0.77930110  0.15138571     0.37700
C1036       C  0.11529896  0.91746446  0.08441341     0.37700
C1037       C  0.09970648  0.91355348  0.17949897     0.36100
C1038       C  0.97694887  0.82665762  0.07397221     0.36100
N1039       N  0.11231576  0.94014753  0.20407011    -0.38700
N1040       N  0.94391667  0.81283395  0.05961269    -0.38700
N1041       N  0.14344701  0.94002540  0.07045577    -0.38200
N1042       N  0.99524806  0.74522485  0.16207506    -0.38200
C1043       C  0.17942755  0.10370019  0.86956424    -0.04800
C1044       C  0.22463156  0.10028125  0.88155878    -0.01900
C1045       C  0.25415933  0.07924364  0.85289172     0.03000
C1046       C  0.23905933  0.06408447  0.81117759    -0.04800
C1047       C  0.19503941  0.07112389  0.79724535    -0.01900
C1048       C  0.16579082  0.09354190  0.82521446     0.03000
C1049       C  0.24076552  0.11732269  0.92370182     0.37700
C1050       C  0.18085928  0.05664293  0.75315838     0.37700
C1051       C  0.12245461  0.10626453  0.80777087     0.36100
C1052       C  0.30114674  0.07584848  0.86450446     0.36100
N1053       N  0.08837041  0.11730488  0.79341619    -0.38700
N1054       N  0.33863569  0.07354722  0.87371866    -0.38700
N1055       N  0.16928752  0.04468331  0.71821399    -0.38200
N1056       N  0.25480885  0.12979642  0.95737132    -0.38200
C1057       C  0.04861909  0.90382163  0.78564144    -0.04800
C1058       C  0.01904391  0.93231546  0.76365206    -0.01900
C1059       C  0.01213714  0.97375896  0.78293826     0.03000
C1060       C  0.04545717  0.99156300  0.81178298    -0.04800
C1061       C  0.08522893  0.96776087  0.81680347    -0.01900
C1062       C  0.08013447  0.92214163  0.81554815     0.03000
C1063       C  0.99213669  0.91743727  0.72630586     0.37700
C1064       C  0.12293172  0.98624802  0.84094182     0.37700
C1065       C  0.09507905  0.89658925  0.85410360     0.36100
C1066       C  0.96658220  0.98807490  0.78417754     0.36100
N1067       N  0.10558640  0.87566370  0.88503894    -0.38700
N1068       N  0.92865021  0.99454026  0.78502520    -0.38700
N1069       N  0.15309609  0.99986664  0.86086117    -0.38200
N1070       N  0.97117344  0.90633672  0.69570985    -0.38200
C1071       C  0.03214874  0.26713423  0.82873846    -0.04800
C1072       C  0.99788982  0.24256801  0.85033283    -0.01900
C1073       C  0.99045810  0.24673426  0.89657611     0.03000
C1074       C  0.02796001  0.25563087  0.92313016    -0.04800
C1075       C  0.06165131  0.28279883  0.90357411    -0.01900
C1076       C  0.06202740  0.29089914  0.85629588     0.03000
C1077       C  0.97780988  0.20645001  0.82700004     0.37700
C1078       C  0.09126054  0.30734999  0.93227752     0.37700
C1079       C  0.09168108  0.32390855  0.83705155     0.36100
C1080       C  0.95108082  0.22754478  0.91786860     0.36100
N1081       N  0.11500530  0.35133417  0.82278195    -0.38700
N1082       N  0.92037087  0.21234699  0.93627629    -0.38700
N1083       N  0.11438372  0.32939378  0.95374438    -0.38200
N1084       N  0.96235364  0.17966007  0.80460699    -0.38200
C1085       C  0.83284867  0.06486452  0.80278783    -0.04800
C1086       C  0.87521078  0.07398985  0.78501093    -0.01900
C1087       C  0.90841486  0.09009891  0.81317608     0.03000
C1088       C  0.89627793  0.10389864  0.85683602    -0.04800
C1089       C  0.85096497  0.10209546  0.87084677    -0.01900
C1090       C  0.82043371  0.07866545  0.84562386     0.03000
C1091       C  0.88370635  0.06784809  0.73734628     0.37700
C1092       C  0.83557821  0.12441279  0.91089285     0.37700
C1093       C  0.77430500  0.07383004  0.86061483     0.36100
C1094       C  0.95418348  0.09017222  0.79696161     0.36100
N1095       N  0.73740306  0.07056589  0.87210106    -0.38700
N1096       N  0.99007220  0.09053868  0.78230181    -0.38700
N1097       N  0.82302533  0.14300413  0.94208948    -0.38200
N1098       N  0.89045972  0.06317373  0.69936253    -0.38200
C1099       C  0.16981143  0.92378518  0.97053821    -0.04800
C1100       C  0.16448490  0.87925798  0.98472495     0.02500
C1101       C  0.20262950  0.85463476  0.99684842     0.03000
C1102       C  0.24526033  0.87472718  0.99518543    -0.04800
C1103       C  0.25038251  0.91826117  0.98048521    -0.01900
C1104       C  0.21348711  0.94164954  0.96578520     0.03000
C1105       C  0.12045364  0.85901440  0.98780691     0.37700
C1106       C  0.29431298  0.93928148  0.98138465     0.37700
C1107       C  0.22118565  0.98523685  0.94739866     0.36100
C1108       C  0.19827034  0.80945634  0.01250308     0.36100
N1109       N  0.22884473  0.02010283  0.93362766    -0.38700
N1110       N  0.19464237  0.77349986  0.02549915    -0.38700
N1111       N  0.32914134  0.95621622  0.98249309    -0.38200
N1112       N  0.08552912  0.84225926  0.98968097    -0.38200
C1113       C  0.82276608  0.25780304  0.00295346    -0.04800
C1114       C  0.81200829  0.21588151  0.01925721    -0.01900
C1115       C  0.84131923  0.19654593  0.04917225     0.03000
C1116       C  0.88661521  0.20919824  0.04791981    -0.04800
C1117       C  0.89845688  0.25122868  0.03019246    -0.01900
C1118       C  0.86549350  0.27628451  0.00900753     0.03000
C1119       C  0.76657468  0.19882319  0.01512996     0.37700
C1120       C  0.94314278  0.26951312  0.03520925     0.37700
C1121       C  0.87413295  0.32161418  0.99552189     0.36100
C1122       C  0.82141117  0.18158726  0.09088760     0.36100
N1123       N  0.88076782  0.35795465  0.98512033    -0.38700
N1124       N  0.80104771  0.17260142  0.12287087    -0.38700
N1125       N  0.97849000  0.28472274  0.03965391    -0.38200
N1126       N  0.73035079  0.18539765  0.01205978    -0.38200
C1127       C  0.85964512  0.86903741  0.99301971    -0.04800
C1128       C  0.83076187  0.90474445  0.99101294    -0.01900
C1129       C  0.84643529  0.94510365  0.97416572     0.03000
C1130       C  0.89009102  0.94794184  0.95515011    -0.04800
C1131       C  0.91531590  0.90939933  0.94946579    -0.01900
C1132       C  0.90161709  0.87083547  0.97119516     0.03000
C1133       C  0.78391056  0.89840712  0.00237080     0.37700
C1134       C  0.95210755  0.90728058  0.91744750     0.37700
C1135       C  0.92841647  0.83155393  0.96616450     0.36100
C1136       C  0.81658012  0.98248440  0.97497878     0.36100
N1137       N  0.95025045  0.80076251  0.96121179    -0.38700
N1138       N  0.79274080  0.01219783  0.97608683    -0.38700
N1139       N  0.98034184  0.90390735  0.89107657    -0.38200
N1140       N  0.74637188  0.89325102  0.01064745    -0.38200
loop_ 
_geom_bond_atom_site_label_1 
_geom_bond_atom_site_label_2 
_geom_bond_distance 
_geom_bond_site_symmetry_2 
_ccdc_geom_bond_type 
N1            C5   1.368   1_554  A
N1            C2   1.377       .  A
N1         C1127   1.409   1_554  S
C2            C3   1.390       .  A
C2          C312   1.543       .  S
C3            C4   1.386   1_554  A
C3            H6   1.081       .  S
C4            C5   1.383       .  A
C4            H7   1.082       .  S
C5          C571   1.545       .  S
N8           C12   1.382       .  A
N8            C9   1.391   1_556  A
N8         C1113   1.396   1_556  S
C9           C10   1.385       .  A
C9          C233   1.589       .  S
C10          C11   1.388   1_554  A
C10          H13   1.082       .  S
C11          C12   1.393       .  A
C11          H14   1.082       .  S
C12         C505   1.580       .  S
N15          C19   1.386   1_554  A
N15          C16   1.387       .  A
N15        C1102   1.422   1_554  S
C16          C17   1.390       .  A
C16         C180   1.551       .  S
C17          C18   1.371   1_554  A
C17          H20   1.083       .  S
C18          C19   1.381       .  A
C18          H21   1.082       .  S
C19         C439   1.548       .  S
N22          C26   1.383       .  A
N22          C23   1.375       .  A
N22        C1085   1.387       .  S
C23          C24   1.388       .  A
C23         C503   1.580       .  S
C24          C25   1.390       .  A
C24          H27   1.082       .  S
C25          C26   1.391       .  A
C25          H28   1.082       .  S
C26         C570   1.573   1_545  S
N29          C33   1.415       .  A
N29          C30   1.413   1_455  A
N29        C1071   1.454       .  S
C30          C31   1.382   1_655  A
C30         C504   1.595       .  S
C31          C32   1.375       .  A
C31          H34   1.083   1_455  S
C32          C33   1.386       .  A
C32          H35   1.083       .  S
C33         C373   1.589       .  S
N36          C40   1.383       .  A
N36          C37   1.394       .  A
N36        C1057   1.436       .  S
C37          C38   1.389       .  A
C37         C569   1.554   1_455  S
C38          C39   1.386       .  A
C38          H41   1.083   1_455  S
C39          C40   1.379       .  A
C39          H42   1.081       .  S
C40         C438   1.548       .  S
N43          C47   1.377       .  A
N43          C44   1.372       .  A
N43        C1046   1.402       .  S
C44          C45   1.379       .  A
C44         C371   1.544       .  S
C45          C46   1.378       .  A
C45          H48   1.082       .  S
C46          C47   1.395       .  A
C46          H49   1.082       .  S
C47         C437   1.553   1_545  S
N50          C54   1.384       .  A
N50          C51   1.385       .  A
N50        C1029   1.428       .  S
C51          C52   1.385       .  A
C51         C304   1.551   1_455  S
C52          C53   1.387       .  A
C52          H55   1.082       .  S
C53          C54   1.384       .  A
C53          H56   1.082       .  S
C54         C187   1.549       .  S
N57          C61   1.392       .  A
N57          C58   1.393       .  A
N57        C1018   1.432       .  S
C58          C59   1.388       .  A
C58         C232   1.566       .  S
C59          C60   1.386       .  A
C59          H62   1.082       .  S
C60          C61   1.380       .  A
C60          H63   1.082       .  S
C61         C319   1.560   1_545  S
N64          C68   1.401       .  A
N64          C65   1.402       .  A
N64        C1001   1.442       .  S
C65          C66   1.385       .  A
C65         C234   1.569   1_455  S
C66          C67   1.383       .  A
C66          H69   1.082   1_455  S
C67          C68   1.381       .  A
C67          H70   1.082       .  S
C68         C114   1.575       .  S
Zr71         O72   2.381       .  S
Zr71         O73   2.676       .  S
Zr71         O74   2.667       .  S
Zr71         O77   2.651       .  S
Zr71         O79   2.394       .  S
Zr71         O80   2.419       .  S
Zr71         O81   2.443       .  S
Zr71         O82   2.440       .  S
O72         H128   0.985       .  S
O72         H136   0.987       .  S
O73          C93   1.331       .  A
O74          C95   1.332       .  A
O75         Zr85   2.444       .  S
O75          C94   1.289       .  A
O76         Zr84   2.466       .  S
O76          C95   1.292       .  A
O77          C94   1.326       .  A
O78         Zr86   2.400       .  S
O78          C93   1.275       .  A
O79         Zr84   2.411       .  S
O79         Zr86   2.398       .  S
O80         Zr85   2.421       .  S
O80         Zr86   2.381       .  S
O80         H115   0.966       .  S
O81         Zr84   2.400       .  S
O81        Zr101   2.400       .  S
O81         H118   0.962       .  S
O82         Zr85   2.392       .  S
O82        Zr101   2.394       .  S
Zr83        O108   2.408       .  S
Zr83        O102   2.629       .  S
Zr83        O110   2.638       .  S
Zr83         O98   2.621       .  S
Zr83         O89   2.425       .  S
Zr83         O90   2.444       .  S
Zr83         O91   2.407       .  S
Zr83         O92   2.413       .  S
Zr84        O103   2.436       .  S
Zr84         O96   2.436       .  S
Zr84         O97   2.448       .  S
Zr84         O90   2.410       .  S
Zr84         O91   2.411       .  S
Zr85         O87   2.441       .  S
Zr85        O109   2.439       .  S
Zr85        O111   2.446       .  S
Zr85         O89   2.388       .  S
Zr85         O92   2.417       .  S
Zr86        O112   2.436       .  S
Zr86        O113   2.438       .  S
Zr86         O88   2.438       .  S
Zr86         O89   2.387       .  S
Zr86         O90   2.383       .  S
O87         H124   0.989       .  S
O88         H119   0.990       .  S
O88         H133   0.990       .  S
O90         H116   0.961       .  S
O91        Zr101   2.390       .  S
O92        Zr101   2.381       .  S
O92         H117   0.966       .  S
C93         C663   1.589       .  S
C94         C691   1.582       .  S
C95         C645   1.609       .  S
O96         H132   0.990       .  S
O97          C99   1.289       .  A
O98          C99   1.321       .  A
C99         C343   1.561       .  S
O100       Zr101   2.434       .  S
O100        H129   0.990       .  S
Zr101       O104   2.435       .  S
Zr101       O105   2.440       .  S
Zr101       O106   2.422       .  S
O102        C107   1.320       .  A
O103        H120   0.990       .  S
O103        H135   0.990       .  S
O104        H121   0.989       .  S
O105        H125   0.989       .  S
O105        H134   0.990       .  S
O106        C107   1.282       .  A
C107        C138   1.570       .  S
O108        H127   0.988       .  S
O108        H131   0.988       .  S
O109        H123   0.990       .  S
O109        H130   0.989       .  S
O110        C114   1.329       .  A
O111        C114   1.286       .  A
O112        H122   0.990       .  S
O113        H126   0.990       .  S
N137        C141   1.390       .  A
N137        C138   1.393       .  A
N137        C990   1.422       .  S
C138        C139   1.391       .  A
C139        C140   1.380       .  A
C139        H142   1.083       .  S
C140        C141   1.381       .  A
C140        H143   1.082       .  S
C141        C172   1.567   1_545  S
Zr144       O145   2.444       .  S
Zr144       O146   2.656       .  S
Zr144       O147   2.688       .  S
Zr144       O150   2.692       .  S
Zr144       O152   2.421       .  S
Zr144       O153   2.426       .  S
Zr144       O154   2.449       .  S
Zr144       O155   2.430       .  S
O145        H201   0.989       .  S
O145        H209   0.989       .  S
O146        C166   1.324       .  A
O147        C168   1.334       .  A
O148       Zr158   2.420       .  S
O148        C167   1.284       .  A
O149       Zr157   2.480       .  S
O149        C168   1.297       .  A
O150        C167   1.337       .  A
O151       Zr159   2.378       .  S
O151        C166   1.267       .  A
O152       Zr157   2.412       .  S
O152       Zr159   2.396       .  S
O153       Zr158   2.408       .  S
O153       Zr159   2.390       .  S
O153        H188   0.966       .  S
O154       Zr157   2.414       .  S
O154       Zr174   2.396       .  S
O154        H191   0.962       .  S
O155       Zr158   2.393       .  S
O155       Zr174   2.385       .  S
Zr156       O181   2.410       .  S
Zr156       O175   2.615       .  S
Zr156       O183   2.596       .  S
Zr156       O171   2.598       .  S
Zr156       O162   2.416       .  S
Zr156       O163   2.441       .  S
Zr156       O164   2.405       .  S
Zr156       O165   2.402       .  S
Zr157       O176   2.436       .  S
Zr157       O169   2.435       .  S
Zr157       O170   2.494       .  S
Zr157       O163   2.409       .  S
Zr157       O164   2.408       .  S
Zr158       O160   2.436       .  S
Zr158       O182   2.441       .  S
Zr158       O184   2.443       .  S
Zr158       O162   2.375       .  S
Zr158       O165   2.404       .  S
Zr159       O185   2.439       .  S
Zr159       O186   2.440       .  S
Zr159       O161   2.445       .  S
Zr159       O162   2.382       .  S
Zr159       O163   2.376       .  S
O160        H197   0.990       .  S
O161        H192   0.990       .  S
O161        H206   0.990       .  S
O163        H189   0.961       .  S
O164       Zr174   2.392       .  S
O165       Zr174   2.379       .  S
O165        H190   0.966       .  S
C166        C684   1.570       .  S
C167        C666   1.585       .  S
C168        C659   1.610       .  S
O169        H205   0.990       .  S
O170        C172   1.300       .  A
O171        C172   1.317       .  A
O173       Zr174   2.438       .  S
O173        H202   0.990       .  S
Zr174       O177   2.435       .  S
Zr174       O178   2.441       .  S
Zr174       O179   2.390       .  S
O175        C180   1.315       .  A
O176        H193   0.990       .  S
O176        H208   0.990       .  S
O177        H194   0.990       .  S
O178        H198   0.990       .  S
O178        H207   0.990       .  S
O179        C180   1.277       .  A
O181        H200   0.986       .  S
O181        H204   0.986       .  S
O182        H196   0.990       .  S
O182        H203   0.990       .  S
O183        C187   1.319       .  A
O184        C187   1.285       .  A
O185        H195   0.990       .  S
O186        H199   0.990       .  S
Zr210       O211   2.421       .  S
Zr210       O212   2.604       .  S
Zr210       O213   2.619       .  S
Zr210       O216   2.636       .  S
Zr210       O218   2.399       .  S
Zr210       O219   2.424       .  S
Zr210       O220   2.438       .  S
Zr210       O221   2.435       .  S
O211        H267   0.989       .  S
O211        H275   0.990       .  S
O212        C232   1.316       .  A
O213        C234   1.318       .  A
O214       Zr224   2.475       .  S
O214        C233   1.296       .  A
O215       Zr223   2.496       .  S
O215        C234   1.298       .  A
O216        C233   1.326       .  A
O217       Zr225   2.434       .  S
O217        C232   1.282       .  A
O218       Zr223   2.408       .  S
O218       Zr225   2.390       .  S
O219       Zr224   2.424       .  S
O219       Zr225   2.377       .  S
O219        H254   0.966       .  S
O220       Zr223   2.403       .  S
O220       Zr240   2.384       .  S
O220        H257   0.961       .  S
O221       Zr224   2.400       .  S
O221       Zr240   2.388       .  S
Zr222       O247   2.423       .  S
Zr222       O241   2.690       .  S
Zr222       O249   2.669       .  S
Zr222       O237   2.647       .  S
Zr222       O228   2.461       .  S
Zr222       O229   2.462       .  S
Zr222       O230   2.409       .  S
Zr222       O231   2.411       .  S
Zr223       O242   2.437       .  S
Zr223       O235   2.434       .  S
Zr223       O236   2.455       .  S
Zr223       O229   2.420       .  S
Zr223       O230   2.421       .  S
Zr224       O226   2.435       .  S
Zr224       O248   2.438       .  S
Zr224       O250   2.492       .  S
Zr224       O228   2.393       .  S
Zr224       O231   2.419       .  S
Zr225       O251   2.435       .  S
Zr225       O252   2.436       .  S
Zr225       O227   2.445       .  S
Zr225       O228   2.421       .  S
Zr225       O229   2.395       .  S
O226        H263   0.990       .  S
O227        H258   0.990       .  S
O227        H272   0.990       .  S
O229        H255   0.960       .  S
O230       Zr240   2.392       .  S
O231       Zr240   2.387       .  S
O231        H256   0.966       .  S
O235        H271   0.990       .  S
O236        C238   1.291       .  A
O237        C238   1.327       .  A
C238        C677   1.573       .  S
O239       Zr240   2.437       .  S
O239        H268   0.990       .  S
Zr240       O243   2.439       .  S
Zr240       O244   2.437       .  S
Zr240       O245   2.388       .  S
O241        C246   1.335       .  A
O242        H259   0.990       .  S
O242        H274   0.990       .  S
O243        H260   0.989       .  S
O244        H264   0.990       .  S
O244        H273   0.990       .  S
O245        C246   1.275       .  A
C246        C649   1.591       .  S
O247        H266   0.987       .  S
O247        H270   0.989       .  S
O248        H262   0.990       .  S
O248        H269   0.990       .  S
O249        C253   1.330       .  A
O250        C253   1.299       .  A
O251        H261   0.990       .  S
O252        H265   0.990       .  S
C253        C642   1.614       .  S
Zr276       O277   2.408       .  S
Zr276       O278   2.657       .  S
Zr276       O279   2.663       .  S
Zr276       O282   2.642       .  S
Zr276       O284   2.411       .  S
Zr276       O285   2.417       .  S
Zr276       O286   2.445       .  S
Zr276       O287   2.438       .  S
O277        H333   0.987       .  S
O277        H341   0.987       .  S
O278        C298   1.328       .  A
O279        C300   1.327       .  A
O280       Zr290   2.491       .  S
O280        C299   1.298       .  A
O281       Zr289   2.452       .  S
O281        C300   1.291       .  A
O282        C299   1.327       .  A
O283       Zr291   2.366       .  S
O283        C298   1.269       .  A
O284       Zr289   2.416       .  S
O284       Zr291   2.396       .  S
O285       Zr290   2.415       .  S
O285       Zr291   2.381       .  S
O285        H320   0.966       .  S
O286       Zr289   2.416       .  S
O286       Zr306   2.391       .  S
O286        H323   0.961       .  S
O287       Zr290   2.394       .  S
O287       Zr306   2.390       .  S
Zr288       O313   2.435       .  S
Zr288       O307   2.609       .  S
Zr288       O315   2.591       .  S
Zr288       O303   2.586       .  S
Zr288       O294   2.432       .  S
Zr288       O295   2.430       .  S
Zr288       O296   2.388       .  S
Zr288       O297   2.431       .  S
Zr289       O308   2.435       .  S
Zr289       O301   2.434       .  S
Zr289       O302   2.495       .  S
Zr289       O295   2.395       .  S
Zr289       O296   2.401       .  S
Zr290       O292   2.431       .  S
Zr290       O314   2.441       .  S
Zr290       O316   2.488       .  S
Zr290       O294   2.388       .  S
Zr290       O297   2.425       .  S
Zr291       O317   2.436       .  S
Zr291       O318   2.436       .  S
Zr291       O293   2.442       .  S
Zr291       O294   2.374       .  S
Zr291       O295   2.369       .  S
O292        H329   0.990       .  S
O293        H324   0.990       .  S
O293        H338   0.989       .  S
O295        H321   0.960       .  S
O296       Zr306   2.401       .  S
O297       Zr306   2.376       .  S
O297        H322   0.965       .  S
C298        C670   1.567       .  S
C299        C656   1.609       .  S
C300        C652   1.582       .  S
O301        H337   0.990       .  S
O302        C304   1.298       .  A
O303        C304   1.314       .  A
O305       Zr306   2.437       .  S
O305        H334   0.990       .  S
Zr306       O309   2.433       .  S
Zr306       O310   2.438       .  S
Zr306       O311   2.405       .  S
O307        C312   1.316       .  A
O308        H325   0.990       .  S
O308        H340   0.990       .  S
O309        H326   0.989       .  S
O310        H330   0.990       .  S
O310        H339   0.990       .  S
O311        C312   1.277       .  A
O313        H332   0.990       .  S
O313        H336   0.990       .  S
O314        H328   0.990       .  S
O314        H335   0.990       .  S
O315        C319   1.318       .  A
O316        C319   1.297       .  A
O317        H327   0.990       .  S
O318        H331   0.990       .  S
N342        C346   1.387   1_554  A
N342        C343   1.378       .  A
N342        C973   1.408       .  S
C343        C344   1.383       .  A
C344        C345   1.381   1_554  A
C344        H347   1.082       .  S
C345        C346   1.392       .  A
C345        H348   1.082       .  S
C346        C372   1.568       .  S
Zr349       O350   2.439       .  S
Zr349       O351   2.595       .  S
Zr349       O352   2.646       .  S
Zr349       O355   2.620       .  S
Zr349       O357   2.416       .  S
Zr349       O358   2.433       .  S
Zr349       O359   2.429       .  S
Zr349       O360   2.425       .  S
O350        H406   0.989       .  S
O350        H414   0.991       .  S
O351        C371   1.312       .  A
O352        C373   1.324       .  A
O353       Zr363   2.459       .  S
O353        C372   1.294       .  A
O354       Zr362   2.486       .  S
O354        C373   1.299       .  A
O355        C372   1.320       .  A
O356       Zr364   2.396       .  S
O356        C371   1.270       .  A
O357       Zr362   2.413       .  S
O357       Zr364   2.396       .  S
O358       Zr363   2.416       .  S
O358       Zr364   2.384       .  S
O358        H393   0.965       .  S
O359       Zr362   2.407       .  S
O359       Zr379   2.384       .  S
O359        H396   0.960       .  S
O360       Zr363   2.392       .  S
O360       Zr379   2.361       .  S
Zr361       O386   2.431       .  S
Zr361       O380   2.644       .  S
Zr361       O388   2.639       .  S
Zr361       O376   2.634       .  S
Zr361       O367   2.438       .  S
Zr361       O368   2.441       .  S
Zr361       O369   2.411       .  S
Zr361       O370   2.415       .  S
Zr362       O381   2.438       .  S
Zr362       O374   2.435       .  S
Zr362       O375   2.480       .  S
Zr362       O368   2.415       .  S
Zr362       O369   2.412       .  S
Zr363       O365   2.434       .  S
Zr363       O387   2.439       .  S
Zr363       O389   2.477       .  S
Zr363       O367   2.393       .  S
Zr363       O370   2.410       .  S
Zr364       O390   2.439       .  S
Zr364       O391   2.435       .  S
Zr364       O366   2.443       .  S
Zr364       O367   2.399       .  S
Zr364       O368   2.381       .  S
O365        H402   0.990       .  S
O366        H397   0.990       .  S
O366        H411   0.990       .  S
O368        H394   0.959       .  S
O369       Zr379   2.399       .  S
O370       Zr379   2.387       .  S
O370        H395   0.966       .  S
O374        H410   0.990       .  S
O375        C377   1.297       .  A
O376        C377   1.325       .  A
C377        C694   1.580       .  S
O378       Zr379   2.438       .  S
O378        H407   0.990       .  S
Zr379       O382   2.434       .  S
Zr379       O383   2.440       .  S
Zr379       O384   2.351       .  S
O380        C385   1.324       .  A
O381        H398   0.990       .  S
O381        H413   0.990       .  S
O382        H399   0.990       .  S
O383        H403   0.990       .  S
O383        H412   0.990       .  S
O384        C385   1.268       .  A
C385        C621   1.552       .  S
O386        H405   0.990       .  S
O386        H409   0.990       .  S
O387        H401   0.990       .  S
O387        H408   0.990       .  S
O388        C392   1.324       .  A
O389        C392   1.294       .  A
O390        H400   0.989       .  S
O391        H404   0.990       .  S
C392        C631   1.581       .  S
Zr415       O416   2.412       .  S
Zr415       O417   2.608       .  S
Zr415       O418   2.583       .  S
Zr415       O421   2.579       .  S
Zr415       O423   2.404       .  S
Zr415       O424   2.405       .  S
Zr415       O425   2.439       .  S
Zr415       O426   2.415       .  S
O416        H472   0.988       .  S
O416        H480   0.988       .  S
O417        C437   1.313       .  A
O418        C439   1.311       .  A
O419       Zr429   2.472       .  S
O419        C438   1.291       .  A
O420       Zr428   2.464       .  S
O420        C439   1.293       .  A
O421        C438   1.316       .  A
O422       Zr430   2.389       .  S
O422        C437   1.276       .  A
O423       Zr428   2.411       .  S
O423       Zr430   2.388       .  S
O424       Zr429   2.420       .  S
O424       Zr430   2.388       .  S
O424        H459   0.966       .  S
O425       Zr428   2.401       .  S
O425       Zr445   2.375       .  S
O425        H462   0.961       .  S
O426       Zr429   2.378       .  S
O426       Zr445   2.380       .  S
Zr427       O452   2.411       .  S
Zr427       O446   2.615       .  S
Zr427       O454   2.613       .  S
Zr427       O442   2.664       .  S
Zr427       O433   2.407       .  S
Zr427       O434   2.425       .  S
Zr427       O435   2.404       .  S
Zr427       O436   2.427       .  S
Zr428       O447   2.436       .  S
Zr428       O440   2.437       .  S
Zr428       O441   2.470       .  S
Zr428       O434   2.398       .  S
Zr428       O435   2.409       .  S
Zr429       O431   2.437       .  S
Zr429       O453   2.438       .  S
Zr429       O455   2.454       .  S
Zr429       O433   2.385       .  S
Zr429       O436   2.418       .  S
Zr430       O456   2.439       .  S
Zr430       O457   2.437       .  S
Zr430       O432   2.439       .  S
Zr430       O433   2.364       .  S
Zr430       O434   2.391       .  S
O431        H468   0.990       .  S
O432        H463   0.990       .  S
O432        H477   0.989       .  S
O434        H460   0.960       .  S
O435       Zr445   2.401       .  S
O436       Zr445   2.388       .  S
O436        H461   0.966       .  S
O440        H476   0.989       .  S
O441        C443   1.295       .  A
O442        C443   1.329       .  A
C443        C617   1.594       .  S
O444       Zr445   2.437       .  S
O444        H473   0.990       .  S
Zr445       O448   2.438       .  S
Zr445       O449   2.440       .  S
Zr445       O450   2.375       .  S
O446        C451   1.320       .  A
O447        H464   0.990       .  S
O447        H479   0.990       .  S
O448        H465   0.990       .  S
O449        H469   0.990       .  S
O449        H478   0.989       .  S
O450        C451   1.271       .  A
C451        C624   1.546       .  S
O452        H471   0.987       .  S
O452        H475   0.989       .  S
O453        H467   0.990       .  S
O453        H474   0.990       .  S
O454        C458   1.322       .  A
O455        C458   1.291       .  A
O456        H466   0.990       .  S
O457        H470   0.991       .  S
C458        C687   1.557       .  S
Zr481       O482   2.380       .  S
Zr481       O483   2.683       .  S
Zr481       O484   2.671       .  S
Zr481       O487   2.640       .  S
Zr481       O489   2.395       .  S
Zr481       O490   2.401       .  S
Zr481       O491   2.434       .  S
Zr481       O492   2.437       .  S
O482        H538   0.983       .  S
O482        H546   0.985       .  S
O483        C503   1.335       .  A
O484        C505   1.331       .  A
O485       Zr495   2.451       .  S
O485        C504   1.289       .  A
O486       Zr494   2.451       .  S
O486        C505   1.291       .  A
O487        C504   1.328       .  A
O488       Zr496   2.371       .  S
O488        C503   1.270       .  A
O489       Zr494   2.416       .  S
O489       Zr496   2.396       .  S
O490       Zr495   2.410       .  S
O490       Zr496   2.379       .  S
O490        H525   0.966       .  S
O491       Zr494   2.400       .  S
O491       Zr511   2.369       .  S
O491        H528   0.959       .  S
O492       Zr495   2.387       .  S
O492       Zr511   2.398       .  S
Zr493       O518   2.413       .  S
Zr493       O512   2.657       .  S
Zr493       O520   2.643       .  S
Zr493       O508   2.650       .  S
Zr493       O499   2.431       .  S
Zr493       O500   2.430       .  S
Zr493       O501   2.396       .  S
Zr493       O502   2.423       .  S
Zr494       O513   2.437       .  S
Zr494       O506   2.435       .  S
Zr494       O507   2.464       .  S
Zr494       O500   2.402       .  S
Zr494       O501   2.407       .  S
Zr495       O497   2.437       .  S
Zr495       O519   2.439       .  S
Zr495       O521   2.427       .  S
Zr495       O499   2.393       .  S
Zr495       O502   2.406       .  S
Zr496       O522   2.440       .  S
Zr496       O523   2.443       .  S
Zr496       O498   2.444       .  S
Zr496       O499   2.380       .  S
Zr496       O500   2.372       .  S
O497        H534   0.990       .  S
O498        H529   0.990       .  S
O498        H543   0.990       .  S
O500        H526   0.959       .  S
O501       Zr511   2.403       .  S
O502       Zr511   2.382       .  S
O502        H527   0.966       .  S
O506        H542   0.990       .  S
O507        C509   1.290       .  A
O508        C509   1.331       .  A
C509        C628   1.583       .  S
O510       Zr511   2.437       .  S
O510        H539   0.990       .  S
Zr511       O514   2.438       .  S
Zr511       O515   2.439       .  S
Zr511       O516   2.391       .  S
O512        C517   1.326       .  A
O513        H530   0.990       .  S
O513        H545   0.990       .  S
O514        H531   0.990       .  S
O515        H535   0.990       .  S
O515        H544   0.990       .  S
O516        C517   1.271       .  A
C517        C635   1.567       .  S
O518        H537   0.983       .  S
O518        H541   0.990       .  S
O519        H533   0.990       .  S
O519        H540   0.990       .  S
O520        C524   1.327       .  A
O521        C524   1.285       .  A
O522        H532   0.990       .  S
O523        H536   0.990       .  S
C524        C680   1.568       .  S
Zr547       O548   2.422       .  S
Zr547       O549   2.611       .  S
Zr547       O550   2.588       .  S
Zr547       O553   2.647       .  S
Zr547       O555   2.400       .  S
Zr547       O556   2.403       .  S
Zr547       O557   2.456       .  S
Zr547       O558   2.430       .  S
O548        H604   0.990       .  S
O548        H612   0.989       .  S
O549        C569   1.319       .  A
O550        C571   1.317       .  A
O551       Zr561   2.431       .  S
O551        C570   1.285       .  A
O552       Zr560   2.432       .  S
O552        C571   1.285       .  A
O553        C570   1.324       .  A
O554       Zr562   2.426       .  S
O554        C569   1.281       .  A
O555       Zr560   2.409       .  S
O555       Zr562   2.376       .  S
O556       Zr561   2.416       .  S
O556       Zr562   2.388       .  S
O556        H591   0.966       .  S
O557       Zr560   2.413       .  S
O557       Zr577   2.405       .  S
O557        H594   0.963       .  S
O558       Zr561   2.388       .  S
O558       Zr577   2.404       .  S
Zr559       O584   2.411       .  S
Zr559       O578   2.644       .  S
Zr559       O586   2.619       .  S
Zr559       O574   2.611       .  S
Zr559       O565   2.424       .  S
Zr559       O566   2.442       .  S
Zr559       O567   2.391       .  S
Zr559       O568   2.410       .  S
Zr560       O579   2.435       .  S
Zr560       O572   2.436       .  S
Zr560       O573   2.456       .  S
Zr560       O566   2.392       .  S
Zr560       O567   2.398       .  S
Zr561       O563   2.435       .  S
Zr561       O585   2.441       .  S
Zr561       O587   2.433       .  S
Zr561       O565   2.375       .  S
Zr561       O568   2.416       .  S
Zr562       O588   2.435       .  S
Zr562       O589   2.438       .  S
Zr562       O564   2.441       .  S
Zr562       O565   2.388       .  S
Zr562       O566   2.399       .  S
O563        H600   0.990       .  S
O564        H595   0.990       .  S
O564        H609   0.990       .  S
O566        H592   0.962       .  S
O567       Zr577   2.394       .  S
O568       Zr577   2.393       .  S
O568        H593   0.966       .  S
O572        H608   0.990       .  S
O573        C575   1.290       .  A
O574        C575   1.319       .  A
C575        C638   1.564       .  S
O576       Zr577   2.440       .  S
O576        H605   0.990       .  S
Zr577       O580   2.438       .  S
Zr577       O581   2.439       .  S
Zr577       O582   2.427       .  S
O578        C583   1.329       .  A
O579        H596   0.990       .  S
O579        H611   0.990       .  S
O580        H597   0.990       .  S
O581        H601   0.990       .  S
O581        H610   0.990       .  S
O582        C583   1.279       .  A
C583        C614   1.585       .  S
O584        H603   0.985       .  S
O584        H607   0.987       .  S
O585        H599   0.990       .  S
O585        H606   0.990       .  S
O586        C590   1.319       .  A
O587        C590   1.286       .  A
O588        H598   0.990       .  S
O589        H602   0.990       .  S
C590        C673   1.549       .  S
N613        C617   1.413       .  A
N613        C614   1.406       .  A
N613        C959   1.445       .  S
C614        C615   1.377       .  A
C615        C616   1.380       .  A
C615        H618   1.082       .  S
C616        C617   1.392       .  A
C616        H619   1.083       .  S
N620        C624   1.369       .  A
N620        C621   1.376       .  A
N620        C945   1.393       .  S
C621        C622   1.395       .  A
C622        C623   1.379       .  A
C622        H625   1.082       .  S
C623        C624   1.382       .  A
C623        H626   1.082       .  S
N627        C631   1.405       .  A
N627        C628   1.397       .  A
N627        C931   1.432       .  S
C628        C629   1.382       .  A
C629        C630   1.387       .  A
C629        H632   1.082       .  S
C630        C631   1.388       .  A
C630        H633   1.083       .  S
N634        C638   1.378       .  A
N634        C635   1.377       .  A
N634        C917   1.394       .  S
C635        C636   1.393       .  A
C636        C637   1.386       .  A
C636        H639   1.082       .  S
C637        C638   1.384       .  A
C637        H640   1.082       .  S
N641        C645   1.417       .  A
N641        C642   1.425       .  A
N641        C903   1.448       .  S
C642        C643   1.389       .  A
C643        C644   1.377       .  A
C643        H646   1.083       .  S
C644        C645   1.381       .  A
C644        H647   1.082       .  S
N648        C652   1.386       .  A
N648        C649   1.386       .  A
N648        C889   1.391       .  S
C649        C650   1.388       .  A
C650        C651   1.387       .  A
C650        H653   1.082       .  S
C651        C652   1.391       .  A
C651        H654   1.082       .  S
N655        C659   1.417       .  A
N655        C656   1.416       .  A
N655        C875   1.440       .  S
C656        C657   1.384       .  A
C657        C658   1.380       .  A
C657        H660   1.082       .  S
C658        C659   1.388       .  A
C658        H661   1.083       .  S
N662        C666   1.382       .  A
N662        C663   1.380       .  A
N662        C861   1.380       .  S
C663        C664   1.388       .  A
C664        C665   1.391       .  A
C664        H667   1.082       .  S
C665        C666   1.393       .  A
C665        H668   1.082       .  S
N669        C673   1.378       .  A
N669        C670   1.374       .  A
N669        C847   1.395       .  S
C670        C671   1.390       .  A
C671        C672   1.384       .  A
C671        H674   1.082       .  S
C672        C673   1.386       .  A
C672        H675   1.082       .  S
N676        C680   1.378       .  A
N676        C677   1.384       .  A
N676        C833   1.398       .  S
C677        C678   1.390       .  A
C678        C679   1.387       .  A
C678        H681   1.082       .  S
C679        C680   1.386       .  A
C679        H682   1.082       .  S
N683        C687   1.377       .  A
N683        C684   1.373       .  A
N683        C822   1.392       .  S
C684        C685   1.392       .  A
C685        C686   1.389       .  A
C685        H688   1.081       .  S
C686        C687   1.385       .  A
C686        H689   1.082       .  S
N690        C694   1.390       .  A
N690        C691   1.389       .  A
N690        C805   1.407       .  S
C691        C692   1.394       .  A
C692        C693   1.383       .  A
C692        H695   1.081       .  S
C693        C694   1.382       .  A
C693        H696   1.082       .  S
O697       Zr733   2.343   1_556  S
O697        C708   1.270   1_545  A
O698       Zr732   2.386   1_566  S
O698        C709   1.284       .  A
O699       Zr705   2.396       .  S
O699        C710   1.288   1_565  A
O700       Zr705   2.451   1_554  S
O700        C711   1.295       .  A
O701       Zr735   2.413   1_565  S
O701        C711   1.293       .  A
O702       Zr734   2.455       .  S
O702        C710   1.293       .  A
O703       Zr705   2.438       .  S
O703        C709   1.289       .  A
O704       Zr705   2.455   1_655  S
O704        C708   1.279       .  A
Zr705       O706   2.331   1_566  S
Zr705       O707   2.309   1_465  S
Zr705       O715   2.323   1_466  S
Zr705       O713   2.336   1_565  S
O706       Zr732   2.306       .  S
O706       Zr735   2.338       .  S
O707       Zr733   2.303   1_556  S
O707       Zr734   2.301   1_655  S
C708       C1130   1.459       .  S
C709       C1099   1.481       .  S
C710       C1060   1.467   1_545  S
C711       C1032   1.472       .  S
H712        O713   0.964       .  S
O713       Zr732   2.291   1_556  S
O713       Zr734   2.340       .  S
H714        O715   0.965   1_565  S
O715       Zr733   2.363       .  S
O715       Zr735   2.332   1_655  S
O716       Zr732   2.366       .  S
O716        C739   1.280       .  A
O717       Zr733   2.412       .  S
O717        C740   1.287       .  A
O718       Zr734   2.364       .  S
O718        C741   1.275       .  A
O719       Zr735   2.485       .  S
O719        C742   1.300       .  A
O720       Zr735   2.473   1_655  S
O720        C743   1.298       .  A
O721       Zr734   2.370   1_655  S
O721        C744   1.277       .  A
O722       Zr736   2.468   1_556  S
O722        C745   1.295       .  A
O723       Zr736   2.432       .  S
O723        C746   1.297       .  A
O724       Zr734   2.421       .  S
O724        C745   1.290       .  A
O725       Zr735   2.417       .  S
O725        C746   1.287       .  A
O726       Zr732   2.417   1_556  S
O726        C741   1.289       .  A
O727       Zr733   2.351   1_556  S
O727        C744   1.274       .  A
O728       Zr733   2.383       .  S
O728        C743   1.268       .  A
O729       Zr732   2.357       .  S
O729        C742   1.279       .  A
O730       Zr736   2.431       .  S
O730        C739   1.291       .  A
O731       Zr736   2.394   1_655  S
O731        C740   1.283       .  A
Zr732       O738   2.296   1_554  S
Zr732       O750   2.312       .  S
Zr733       O737   2.315       .  S
Zr733       O748   2.311   1_554  S
Zr734       O738   2.300       .  S
Zr734       O748   2.340   1_455  S
Zr735       O737   2.356   1_455  S
Zr735       O750   2.349       .  S
Zr736       O737   2.357   1_455  S
Zr736       O738   2.330   1_554  S
Zr736       O750   2.309       .  S
Zr736       O748   2.328   1_454  S
C739        C976   1.471       .  S
C740       C1116   1.461       .  S
C741       C1043   1.461       .  S
C742        C987   1.484       .  S
C743       C1015   1.434       .  S
C744       C1088   1.445       .  S
C745       C1074   1.482       .  S
C746       C1004   1.468       .  S
H747        O748   0.961       .  S
H749        O750   0.963       .  S
O751       Zr787   2.417       .  S
O751        C762   1.284       .  A
O752       Zr786   2.418       .  S
O752        C763   1.295       .  A
O753       Zr759   2.362       .  S
O753        C764   1.276       .  A
O754       Zr759   2.382       .  S
O754        C765   1.280       .  A
O755       Zr789   2.382       .  S
O755        C765   1.281       .  A
O756       Zr788   2.372       .  S
O756        C764   1.281       .  A
O757       Zr759   2.394       .  S
O757        C763   1.281       .  A
O758       Zr759   2.414       .  S
O758        C762   1.293       .  A
Zr759       O760   2.330       .  S
Zr759       O761   2.296       .  S
Zr759       O769   2.300       .  S
Zr759       O767   2.333       .  S
O760       Zr786   2.310       .  S
O760       Zr789   2.302       .  S
O761       Zr787   2.316       .  S
O761       Zr788   2.307       .  S
C762        C962   1.468       .  S
C763        C934   1.464       .  S
C764        C948   1.450       .  S
C765        C920   1.455       .  S
H766        O767   0.966       .  S
O767       Zr786   2.331       .  S
O767       Zr788   2.299       .  S
H768        O769   0.963       .  S
O769       Zr787   2.331       .  S
O769       Zr789   2.300       .  S
O770       Zr786   2.417       .  S
O770        C793   1.286       .  A
O771       Zr787   2.392       .  S
O771        C794   1.284       .  A
O772       Zr788   2.360       .  S
O772        C795   1.280       .  A
O773       Zr789   2.354       .  S
O773        C796   1.277       .  A
O774       Zr789   2.350       .  S
O774        C797   1.279       .  A
O775       Zr788   2.343       .  S
O775        C798   1.273       .  A
O776       Zr790   2.365       .  S
O776        C799   1.277       .  A
O777       Zr790   2.376       .  S
O777        C800   1.279       .  A
O778       Zr788   2.352       .  S
O778        C799   1.277       .  A
O779       Zr789   2.393       .  S
O779        C800   1.286       .  A
O780       Zr786   2.416       .  S
O780        C795   1.286       .  A
O781       Zr787   2.412       .  S
O781        C798   1.289       .  A
O782       Zr787   2.412       .  S
O782        C797   1.286       .  A
O783       Zr786   2.435       .  S
O783        C796   1.293       .  A
O784       Zr790   2.434       .  S
O784        C793   1.298       .  A
O785       Zr790   2.462       .  S
O785        C794   1.295       .  A
Zr786       O792   2.330       .  S
Zr786       O804   2.330       .  S
Zr787       O791   2.337       .  S
Zr787       O802   2.311       .  S
Zr788       O792   2.285       .  S
Zr788       O802   2.307       .  S
Zr789       O791   2.307       .  S
Zr789       O804   2.294       .  S
Zr790       O791   2.324       .  S
Zr790       O792   2.320       .  S
Zr790       O804   2.307       .  S
Zr790       O802   2.325       .  S
C793        C906   1.474       .  S
C794        C878   1.464       .  S
C795        C808   1.458       .  S
C796        C836   1.442       .  S
C797        C850   1.450       .  S
C798        C819   1.428       .  S
C799        C864   1.438       .  S
C800        C892   1.445       .  S
H801        O802   0.965       .  S
H803        O804   0.961       .  S
C805        C806   1.406       .  A
C805        C810   1.395       .  A
C806        C807   1.404       .  A
C806        C811   1.448       .  S
C807        C808   1.409       .  A
C807        C814   1.449       .  S
C808        C809   1.411       .  A
C809        C810   1.383       .  A
C809        C812   1.444       .  S
C810        C813   1.454       .  S
C811        N818   1.157       .  T
C812        N817   1.152       .  T
C813        N815   1.157       .  T
C814        N816   1.157       .  T
C819        C820   1.405       .  A
C819        C824   1.405       .  A
C820        C821   1.372       .  A
C820        C825   1.443       .  S
C821        C822   1.393       .  A
C821        C828   1.451       .  S
C822        C823   1.402       .  A
C823        C824   1.392       .  A
C823        C826   1.450       .  S
C824        C827   1.445       .  S
C825        N832   1.154       .  T
C826        N831   1.157       .  T
C827        N829   1.155       .  T
C828        N830   1.157       .  T
C833        C834   1.392       .  A
C833        C838   1.401       .  A
C834        C835   1.379       .  A
C834        C839   1.450       .  S
C835        C836   1.408       .  A
C835        C842   1.440       .  S
C836        C837   1.410       .  A
C837        C838   1.394       .  A
C837        C840   1.442       .  S
C838        C841   1.452       .  S
C839        N846   1.157       .  T
C840        N845   1.153       .  T
C841        N843   1.157       .  T
C842        N844   1.153       .  T
C847        C848   1.394       .  A
C847        C852   1.395       .  A
C848        C849   1.394       .  A
C848        C853   1.450       .  S
C849        C850   1.419       .  A
C849        C856   1.450       .  S
C850        C851   1.420       .  A
C851        C852   1.381       .  A
C851        C854   1.455       .  S
C852        C855   1.454       .  S
C853        N860   1.157       .  T
C854        N859   1.157       .  T
C855        N857   1.157       .  T
C856        N858   1.157       .  T
C861        C862   1.392       .  A
C861        C866   1.391       .  A
C862        C863   1.384       .  A
C862        C867   1.455       .  S
C863        C864   1.421       .  A
C863        C870   1.453       .  S
C864        C865   1.418       .  A
C865        C866   1.379       .  A
C865        C868   1.454       .  S
C866        C869   1.453       .  S
C867        N874   1.158       .  T
C868        N873   1.156       .  T
C869        N871   1.157       .  T
C870        N872   1.157       .  T
C875        C876   1.407       .  A
C875        C880   1.409       .  A
C876        C877   1.397       .  A
C876        C881   1.442       .  S
C877        C878   1.404       .  A
C877        C884   1.449       .  S
C878        C879   1.413       .  A
C879        C880   1.410       .  A
C879        C882   1.439       .  S
C880        C883   1.445       .  S
C881        N888   1.155       .  T
C882        N887   1.154       .  T
C883        N885   1.157       .  T
C884        N886   1.156       .  T
C889        C890   1.396       .  A
C889        C894   1.393       .  A
C890        C891   1.393       .  A
C890        C895   1.451       .  S
C891        C892   1.416       .  A
C891        C898   1.450       .  S
C892        C893   1.407       .  A
C893        C894   1.381       .  A
C893        C896   1.443       .  S
C894        C897   1.454       .  S
C895        N902   1.157       .  T
C896        N901   1.153       .  T
C897        N899   1.157       .  T
C898        N900   1.157       .  T
C903        C904   1.418       .  A
C903        C908   1.416       .  A
C904        C905   1.421       .  A
C904        C909   1.443       .  S
C905        C906   1.404       .  A
C905        C912   1.443       .  S
C906        C907   1.390       .  A
C907        C908   1.397       .  A
C907        C910   1.449       .  S
C908        C911   1.443       .  S
C909        N916   1.157       .  T
C910        N915   1.156       .  T
C911        N913   1.155       .  T
C912        N914   1.157       .  T
C917        C918   1.393       .  A
C917        C922   1.392       .  A
C918        C919   1.391       .  A
C918        C923   1.452       .  S
C919        C920   1.421       .  A
C919        C926   1.455       .  S
C920        C921   1.422       .  A
C921        C922   1.387       .  A
C921        C924   1.449       .  S
C922        C925   1.455       .  S
C923        N930   1.157       .  T
C924        N929   1.157       .  T
C925        N927   1.157       .  T
C926        N928   1.157       .  T
C931        C932   1.410       .  A
C931        C936   1.416       .  A
C932        C933   1.389       .  A
C932        C937   1.451       .  S
C933        C934   1.394       .  A
C933        C940   1.449       .  S
C934        C935   1.403       .  A
C935        C936   1.412       .  A
C935        C938   1.441       .  S
C936        C939   1.442       .  S
C937        N944   1.157       .  T
C938        N943   1.155       .  T
C939        N941   1.157       .  T
C940        N942   1.156       .  T
C945        C946   1.399       .  A
C945        C950   1.403       .  A
C946        C947   1.391       .  A
C946        C951   1.452       .  S
C947        C948   1.417       .  A
C947        C954   1.453       .  S
C948        C949   1.411       .  A
C949        C950   1.384       .  A
C949        C952   1.453       .  S
C950        C953   1.455       .  S
C951        N958   1.157       .  T
C952        N957   1.157       .  T
C953        N955   1.157       .  T
C954        N956   1.158       .  T
C959        C960   1.414       .  A
C959        C964   1.416       .  A
C960        C961   1.394       .  A
C960        C965   1.441       .  S
C961        C962   1.394       .  A
C961        C968   1.450       .  S
C962        C963   1.401       .  A
C963        C964   1.420       .  A
C963        C966   1.441       .  S
C964        C967   1.440       .  S
C965        N972   1.153       .  T
C966        N971   1.157       .  T
C967        N969   1.156       .  T
C968        N970   1.156       .  T
C973        C974   1.402       .  A
C973        C978   1.395       .  A
C974        C975   1.401       .  A
C974        C979   1.449       .  S
C975        C976   1.416       .  A
C975        C982   1.448       .  S
C976        C977   1.418       .  A
C977        C978   1.392       .  A
C977        C980   1.447       .  S
C978        C981   1.454       .  S
C979        N986   1.157       .  T
C980        N985   1.154       .  T
C981        N983   1.157       .  T
C982        N984   1.157       .  T
C987        C988   1.424       .  A
C987        C992   1.418       .  A
C988        C989   1.388       .  A
C988        C993   1.449       .  S
C989        C990   1.397       .  A
C989        C996   1.457       .  S
C990        C991   1.406       .  A
C991        C992   1.415       .  A
C991        C994   1.448       .  S
C992        C995   1.448       .  S
C993       N1000   1.154   1_545  T
C994        N999   1.157       .  T
C995        N997   1.157       .  T
C996        N998   1.157       .  T
C1001      C1002   1.408       .  A
C1001      C1006   1.421       .  A
C1002      C1003   1.389       .  A
C1002      C1007   1.446       .  S
C1003      C1004   1.398       .  A
C1003      C1010   1.449       .  S
C1004      C1005   1.403       .  A
C1005      C1006   1.420       .  A
C1005      C1008   1.446   1_455  S
C1006      C1009   1.443   1_455  S
C1007      N1014   1.155       .  T
C1008      N1013   1.158       .  T
C1009      N1011   1.157       .  T
C1010      N1012   1.157       .  T
C1015      C1016   1.378       .  A
C1015      C1020   1.408       .  A
C1016      C1017   1.376       .  A
C1016      C1021   1.448       .  S
C1017      C1018   1.419       .  A
C1017      C1024   1.440       .  S
C1018      C1019   1.425       .  A
C1019      C1020   1.421       .  A
C1019      C1022   1.443       .  S
C1020      C1023   1.438   1_545  S
C1021      N1028   1.158       .  T
C1022      N1027   1.156       .  T
C1023      N1025   1.155       .  T
C1024      N1026   1.156       .  T
C1029      C1030   1.407       .  A
C1029      C1034   1.399       .  A
C1030      C1031   1.410       .  A
C1030      C1035   1.446       .  S
C1031      C1032   1.411       .  A
C1031      C1038   1.436   1_455  S
C1032      C1033   1.410       .  A
C1033      C1034   1.388       .  A
C1033      C1036   1.439       .  S
C1034      C1037   1.449       .  S
C1035      N1042   1.157   1_455  T
C1036      N1041   1.152       .  T
C1037      N1039   1.157       .  T
C1038      N1040   1.154       .  T
C1043      C1044   1.403       .  A
C1043      C1048   1.417       .  A
C1044      C1045   1.392       .  A
C1044      C1049   1.444       .  S
C1045      C1046   1.402       .  A
C1045      C1052   1.452       .  S
C1046      C1047   1.399       .  A
C1047      C1048   1.395       .  A
C1047      C1050   1.450       .  S
C1048      C1051   1.451       .  S
C1049      N1056   1.153       .  T
C1050      N1055   1.157       .  T
C1051      N1053   1.157       .  T
C1052      N1054   1.157       .  T
C1057      C1058   1.401       .  A
C1057      C1062   1.412       .  A
C1058      C1059   1.408       .  A
C1058      C1063   1.447   1_455  S
C1059      C1060   1.423       .  A
C1059      C1066   1.435   1_455  S
C1060      C1061   1.406       .  A
C1061      C1062   1.394       .  A
C1061      C1064   1.449       .  S
C1062      C1065   1.449       .  S
C1063      N1070   1.157       .  T
C1064      N1069   1.156       .  T
C1065      N1067   1.156       .  T
C1066      N1068   1.154       .  T
C1071      C1072   1.409   1_455  A
C1071      C1076   1.412       .  A
C1072      C1073   1.399       .  A
C1072      C1077   1.433       .  S
C1073      C1074   1.398   1_655  A
C1073      C1080   1.448       .  S
C1074      C1075   1.414       .  A
C1075      C1076   1.423       .  A
C1075      C1078   1.440       .  S
C1076      C1079   1.442       .  S
C1077      N1084   1.152       .  T
C1078      N1083   1.156       .  T
C1079      N1081   1.156       .  T
C1080      N1082   1.156       .  T
C1085      C1086   1.395       .  A
C1085      C1090   1.397       .  A
C1086      C1087   1.389       .  A
C1086      C1091   1.454       .  S
C1087      C1088   1.417       .  A
C1087      C1094   1.450       .  S
C1088      C1089   1.417       .  A
C1089      C1090   1.380       .  A
C1089      C1092   1.454       .  S
C1090      C1093   1.454       .  S
C1091      N1098   1.157       .  T
C1092      N1097   1.156       .  T
C1093      N1095   1.157       .  T
C1094      N1096   1.157       .  T
C1099      C1100   1.418       .  A
C1099      C1104   1.415       .  A
C1100      C1101   1.416       .  A
C1100      C1105   1.449       .  S
C1101      C1102   1.408       .  A
C1101      C1108   1.447   1_556  S
C1102      C1103   1.394       .  A
C1103      C1104   1.387       .  A
C1103      C1106   1.455       .  S
C1104      C1107   1.441       .  S
C1105      N1112   1.157       .  T
C1106      N1111   1.157       .  T
C1107      N1109   1.151   1_565  T
C1108      N1110   1.157       .  T
C1113      C1114   1.390       .  A
C1113      C1118   1.403       .  A
C1114      C1115   1.380       .  A
C1114      C1119   1.455       .  S
C1115      C1116   1.404       .  A
C1115      C1122   1.440       .  S
C1116      C1117   1.415       .  A
C1117      C1118   1.398       .  A
C1117      C1120   1.450       .  S
C1118      C1121   1.449   1_554  S
C1119      N1126   1.157       .  T
C1120      N1125   1.157       .  T
C1121      N1123   1.157       .  T
C1122      N1124   1.156       .  T
C1127      C1128   1.395       .  A
C1127      C1132   1.412       .  A
C1128      C1129   1.394       .  A
C1128      C1133   1.451   1_556  S
C1129      C1130   1.423       .  A
C1129      C1136   1.453       .  S
C1130      C1131   1.412       .  A
C1131      C1132   1.387       .  A
C1131      C1134   1.456       .  S
C1132      C1135   1.454       .  S
C1133      N1140   1.157       .  T
C1134      N1139   1.157       .  T
C1135      N1137   1.158       .  T
C1136      N1138   1.157   1_565  T
