geometry optimzed in LAMMPS
_audit_creation_date              2020-12-01 
_audit_creation_method            'lammps2cif' 
_symmetry_space_group_name_H-M    'P1' 
_symmetry_Int_Tables_number       1 
_symmetry_cell_setting            triclinic 
loop_ 
_symmetry_equiv_pos_as_xyz 
  x,y,z 
_cell_length_a                    41.74369957 
_cell_length_b                    41.678594614746025 
_cell_length_c                    41.74073478498466 
_cell_angle_alpha                 90.30330551486969 
_cell_angle_beta                  90.14744644375689 
_cell_angle_gamma                 90.1605188689474 
loop_ 
_atom_site_label 
_atom_site_type_symbol 
_atom_site_fract_x 
_atom_site_fract_y 
_atom_site_fract_z 
_atom_site_charge 
O1          O  0.76397384  0.46643132  0.72269980    -0.72600
O2          O  0.72190625  0.53250751  0.76943706    -0.72800
O3          O  0.76498753  0.53061991  0.72188470    -0.72700
O4          O  0.72103123  0.46769636  0.77018238    -0.72700
O5          O  0.75931748  0.46825221  0.80559176    -0.72600
O6          O  0.80369850  0.53076770  0.75660712    -0.72700
O7          O  0.76041720  0.53277253  0.80452693    -0.72600
O8          O  0.80256271  0.46677500  0.75771998    -0.72800
V9          V  0.74365311  0.49936796  0.74683042     1.35200
V10         V  0.78070328  0.49964887  0.78050040     1.35200
C11         C  0.79076376  0.45581059  0.73194165     0.76700
C12         C  0.73414415  0.54418836  0.79470778     0.76700
C13         C  0.79233351  0.54063591  0.73033007     0.76600
C14         C  0.73292326  0.45689112  0.79580076     0.76500
O15         O  0.45342954  0.82660895  0.75840310    -0.72600
O16         O  0.51608607  0.77998598  0.80496799    -0.72800
O17         O  0.51743480  0.82544334  0.75957001    -0.72700
O18         O  0.45161883  0.78095192  0.80395863    -0.72700
O19         O  0.45075032  0.74468142  0.76642410    -0.72600
O20         O  0.51805133  0.78780743  0.72336950    -0.72700
O21         O  0.51525641  0.74262730  0.76862129    -0.72600
O22         O  0.45392177  0.79011059  0.72127309    -0.72800
V23         V  0.48460426  0.80248967  0.78107581     1.35200
V24         V  0.48445936  0.76698948  0.74568113     1.35200
C25         C  0.44356826  0.81676217  0.73139277     0.76700
C26         C  0.52682386  0.75360195  0.79451529     0.76700
C27         C  0.52878067  0.81424825  0.73379646     0.76600
C28         C  0.43966362  0.75542095  0.79249298     0.76500
O29         O  0.71913085  0.78037174  0.50722279    -0.72600
O30         O  0.76556818  0.73328041  0.44497803    -0.72800
O31         O  0.76438430  0.73472238  0.50912240    -0.72700
O32         O  0.72032569  0.77889418  0.44278617    -0.72700
O33         O  0.75477691  0.81789548  0.44661820    -0.72600
O34         O  0.80349651  0.76898728  0.50569746    -0.72700
O35         O  0.79985861  0.77216347  0.44167365    -0.72600
O36         O  0.75826462  0.81441394  0.51078390    -0.72800
V37         V  0.74298628  0.75750240  0.47602844     1.35200
V38         V  0.77841469  0.79272808  0.47617863     1.35200
C39         C  0.73120812  0.80485749  0.52057059     0.76700
C40         C  0.79030700  0.74489394  0.43207691     0.76700
C41         C  0.79204623  0.74373420  0.51784041     0.76600
C42         C  0.72977340  0.80629585  0.43387211     0.76500
C43         C  0.30468919  0.88595225  0.34237358     0.79400
N44         N  0.32544127  0.86928920  0.32361317    -0.78900
C45         C  0.34275158  0.88434681  0.30062097     0.81900
N46         N  0.33924466  0.91640340  0.29628390    -0.78800
C47         C  0.31829044  0.93328722  0.31458979     0.82000
N48         N  0.30111426  0.91792103  0.33747728    -0.80600
C49         C  0.33586558  0.12228560  0.30148879     0.79400
N50         N  0.31726868  0.13648665  0.32410275    -0.78900
C51         C  0.29765714  0.11871952  0.34307865     0.81900
N52         N  0.29722546  0.08634101  0.33920992    -0.78800
C53         C  0.31653272  0.07174615  0.31745818     0.82000
N54         N  0.33566070  0.08986012  0.29848232    -0.80600
O55         O  0.44531073  0.22545353  0.15838706    -0.72600
O56         O  0.50630429  0.17654439  0.20534720    -0.72800
O57         O  0.44227352  0.18067572  0.20473909    -0.72700
O58         O  0.50925826  0.22116265  0.15858117    -0.72700
O59         O  0.51204671  0.25851113  0.19502176    -0.72600
O60         O  0.44445275  0.21835975  0.24065682    -0.72700
O61         O  0.50840895  0.21420886  0.24130519    -0.72600
O62         O  0.44791808  0.26277521  0.19459296    -0.72800
V63         V  0.47585529  0.20165690  0.18244079     1.35200
V64         V  0.47816856  0.23772847  0.21716014     1.35200
C65         C  0.43648822  0.25279995  0.16834030     0.76700
C66         C  0.51757810  0.18697523  0.23160627     0.76700
C67         C  0.43222170  0.19230539  0.23087985     0.76600
C68         C  0.52173114  0.24695015  0.16872704     0.76500
C69         C  0.65619807  0.87986753  0.34183262     0.79400
N70         N  0.63589616  0.86403339  0.32158766    -0.78900
C71         C  0.61806848  0.88027571  0.29972792     0.81900
N72         N  0.62010456  0.91275221  0.29887923    -0.78800
C73         C  0.64030555  0.92895231  0.31872090     0.82000
N74         N  0.65836775  0.91237274  0.34004578    -0.80600
C75         C  0.64511088  0.11598688  0.35187691     0.79400
N76         N  0.64821482  0.08371155  0.34900820    -0.78900
C77         C  0.62891559  0.06696881  0.32864727     0.81900
N78         N  0.60715304  0.08294658  0.31045615    -0.78800
C79         C  0.60379803  0.11523704  0.31332638     0.82000
N80         N  0.62287785  0.13165678  0.33412636    -0.80600
O81         O  0.75274486  0.17866731  0.44600401    -0.72600
O82         O  0.80052893  0.22207602  0.51053689    -0.72800
O83         O  0.75438866  0.17667067  0.51004566    -0.72700
O84         O  0.79853760  0.22393973  0.44613504    -0.72700
O85         O  0.76124050  0.25987343  0.44716464    -0.72600
O86         O  0.71935886  0.21497450  0.51409571    -0.72700
O87         O  0.76510549  0.26009968  0.51120773    -0.72600
O88         O  0.71532214  0.21457906  0.45000349    -0.72800
V89         V  0.77590189  0.20106857  0.47827733     1.35200
V90         V  0.74097033  0.23667700  0.48054056     1.35200
C91         C  0.72564404  0.18898378  0.43741731     0.76700
C92         C  0.79126282  0.24886598  0.52139355     0.76700
C93         C  0.72932715  0.18780140  0.52286379     0.76600
C94         C  0.78717077  0.24983793  0.43524991     0.83700
C95         C  0.62606205  0.87945858  0.65980372     0.79400
N96         N  0.62701676  0.91206751  0.65956322    -0.78900
C97         C  0.64591874  0.92812976  0.63853067     0.81900
N98         N  0.66446784  0.91109231  0.61785886    -0.78800
C99         C  0.66383811  0.87849751  0.61775430     0.82000
N100        N  0.64413821  0.86304398  0.63839299    -0.80600
C101        C  0.61462598  0.11580294  0.65291179     0.79400
N102        N  0.61755600  0.08335702  0.65526900    -0.78900
C103        C  0.64111721  0.06753524  0.63920980     0.81900
N104        N  0.66133580  0.08438159  0.62011489    -0.78800
C105        C  0.65897274  0.11676232  0.61792207     0.82000
N106        N  0.63567986  0.13220658  0.63443332    -0.80600
C107        C  0.34730950  0.88823958  0.66161756     0.79400
N108        N  0.32850421  0.87103295  0.64124202    -0.78900
C109        C  0.30520178  0.88533144  0.62384192     0.81900
N110        N  0.30159205  0.91756451  0.62630522    -0.78800
C111        C  0.32091521  0.93540443  0.64555413     0.82000
N112        N  0.34368665  0.92062080  0.66353310    -0.80600
C113        C  0.33503127  0.12160950  0.66123920     0.79400
N114        N  0.33146032  0.08955892  0.66525544    -0.78900
C115        C  0.30827996  0.07309853  0.64940636     0.81900
N116        N  0.28829045  0.08902517  0.62936702    -0.78800
C117        C  0.29090824  0.12129510  0.62555565     0.82000
N118        N  0.31469325  0.13736318  0.64128838    -0.80600
O119        O  0.50794948  0.21096995  0.71686598    -0.72600
O120        O  0.45134882  0.26174800  0.76688559    -0.72800
O121        O  0.51530664  0.25657959  0.76219921    -0.72700
O122        O  0.44401487  0.21644757  0.72163006    -0.72700
O123        O  0.44682995  0.17737690  0.75578505    -0.72600
O124        O  0.51213994  0.22245675  0.80106857    -0.72700
O125        O  0.44769216  0.22321136  0.80128949    -0.72600
O126        O  0.51106657  0.17664911  0.75549344    -0.72800
V127        V  0.47968877  0.23577166  0.74256257     1.35200
V128        V  0.47944511  0.20060849  0.77776666     1.35200
C129        C  0.51953927  0.18517154  0.72776045     0.76700
C130        C  0.43918214  0.25085602  0.79236559     0.76700
C131        C  0.52553988  0.24678752  0.78898330     0.76600
C132        C  0.43376339  0.18969758  0.73144015     0.76500
O133        O  0.15010416  0.22065213  0.44832585    -0.72600
O134        O  0.19368417  0.17412423  0.51337104    -0.72800
O135        O  0.14832381  0.21996466  0.51256248    -0.72700
O136        O  0.19537368  0.17472096  0.44893111    -0.72700
O137        O  0.23163820  0.21218719  0.44972686    -0.72600
O138        O  0.18612735  0.25584799  0.51521104    -0.72700
O139        O  0.23108789  0.21048832  0.51418065    -0.72600
O140        O  0.18657802  0.25776248  0.45103441    -0.72800
V141        V  0.17259056  0.19801778  0.48083072     1.35200
V142        V  0.20814925  0.23329765  0.48246590     1.35200
C143        C  0.16063090  0.24756146  0.43908675     0.76700
C144        C  0.21982351  0.18452168  0.52486861     0.76700
C145        C  0.15929441  0.24560336  0.52471403     0.76600
C146        C  0.22123991  0.18611118  0.43804611     0.76500
C147        C  0.65908142  0.36158192  0.86386850     0.79400
N148        N  0.66038645  0.35761121  0.89607000    -0.78900
C149        C  0.64143514  0.33568804  0.91085492     0.81900
N150        N  0.62075243  0.31761380  0.89308089    -0.78800
C151        C  0.61928952  0.32121225  0.86072875     0.82000
N152        N  0.63867987  0.34301235  0.84635657    -0.80600
C153        C  0.65572780  0.35961479  0.09840829     0.79400
N154        N  0.65668435  0.35812665  0.06593682    -0.78900
C155        C  0.63810153  0.33681676  0.04955461     0.81900
N156        N  0.61906886  0.31620387  0.06601656    -0.78800
C157        C  0.61828898  0.31699771  0.09860882     0.82000
N158        N  0.63642176  0.33905690  0.11453257    -0.80600
O159        O  0.72286621  0.46902877  0.18872814    -0.72600
O160        O  0.77159404  0.53164045  0.23379164    -0.72800
O161        O  0.72597464  0.53351212  0.18869628    -0.72700
O162        O  0.76826460  0.46754109  0.23399414    -0.72700
O163        O  0.80471799  0.46527687  0.19715864    -0.72600
O164        O  0.76226854  0.53193587  0.15172017    -0.72700
O165        O  0.80830908  0.52970252  0.19724495    -0.72600
O166        O  0.75921708  0.46719942  0.15190387    -0.72800
V167        V  0.74787663  0.50044511  0.21053164     1.35200
V168        V  0.78292676  0.49862774  0.17515206     1.35200
C169        C  0.73292866  0.45689747  0.16279061     0.76700
C170        C  0.79846217  0.54116259  0.22352428     0.76700
C171        C  0.73682623  0.54428489  0.16262114     0.76600
C172        C  0.79342837  0.45476253  0.22321347     0.76500
C173        C  0.66281572  0.64097122  0.86542025     0.79400
N174        N  0.66668889  0.64680651  0.89728832    -0.78900
C175        C  0.64869919  0.66925485  0.91265286     0.81900
N176        N  0.62648211  0.68595947  0.89576765    -0.78800
C177        C  0.62227681  0.68050040  0.86395393     0.82000
N178        N  0.64056455  0.65812257  0.84893626    -0.80600
C179        C  0.66360452  0.64358365  0.09880288     0.79400
N180        N  0.64401797  0.66317256  0.11601822    -0.78900
C181        C  0.62674210  0.68656561  0.10145957     0.81900
N182        N  0.62905222  0.68965760  0.06912487    -0.78800
C183        C  0.64803066  0.66996812  0.05149514     0.82000
N184        N  0.66562400  0.64719561  0.06655669    -0.80600
C185        C  0.30586116  0.63822036  0.85725454     0.79400
N186        N  0.32804832  0.65719683  0.84294615    -0.78900
C187        C  0.34560304  0.67864874  0.86038169     0.81900
N188        N  0.34060014  0.68074294  0.89253504    -0.78800
C189        C  0.31886500  0.66145437  0.90727034     0.82000
N190        N  0.30116667  0.64069137  0.88931397    -0.80600
C191        C  0.29783124  0.64093271  0.09501279     0.79400
N192        N  0.29448536  0.64357360  0.06271775    -0.78900
C193        C  0.31115486  0.66616976  0.04617864     0.81900
N194        N  0.33152804  0.68598906  0.06235471    -0.78800
C195        C  0.33470337  0.68411988  0.09472866     0.82000
N196        N  0.31792545  0.66132676  0.11075476    -0.80600
O197        O  0.44796522  0.77984462  0.14992603    -0.72600
O198        O  0.50756648  0.82758602  0.20061848    -0.72800
O199        O  0.51255810  0.78344600  0.15383983    -0.72700
O200        O  0.44342524  0.82421687  0.19684087    -0.72700
O201        O  0.44597569  0.78833993  0.23422152    -0.72600
O202        O  0.50973872  0.74386089  0.18716289    -0.72700
O203        O  0.51035363  0.78783782  0.23397741    -0.72600
O204        O  0.44506833  0.74415170  0.18754796    -0.72800
V205        V  0.47784914  0.80303973  0.17589245     1.35200
V206        V  0.47776644  0.76673163  0.21001164     1.35200
C207        C  0.43559461  0.75431726  0.16068279     0.76700
C208        C  0.51958966  0.81543528  0.22561168     0.76700
C209        C  0.52291661  0.75653664  0.16303919     0.76600
C210        C  0.43336719  0.81360485  0.22331149     0.76500
C211        C  0.29748733  0.36077011  0.85952962     0.79400
N212        N  0.29616156  0.35833088  0.89197771    -0.78900
C213        C  0.31652703  0.33854110  0.90786340     0.81900
N214        N  0.33900232  0.32207599  0.89107473    -0.78800
C215        C  0.34112717  0.32469422  0.85873994     0.82000
N216        N  0.32013969  0.34401842  0.84323664    -0.80600
C217        C  0.30360020  0.36642489  0.09425193     0.79400
N218        N  0.30226744  0.36307409  0.06190444    -0.78900
C219        C  0.32174743  0.34206742  0.04646471     0.81900
N220        N  0.34195278  0.32344785  0.06377969    -0.78800
C221        C  0.34311346  0.32601071  0.09618909     0.82000
N222        N  0.32415274  0.34778332  0.11125167    -0.80600
C223        C  0.85721832  0.35505441  0.66288444     0.79400
N224        N  0.84238914  0.33717364  0.63998897    -0.78900
C225        C  0.85888323  0.31513669  0.62265505     0.81900
N226        N  0.89092560  0.31181366  0.62728191    -0.78800
C227        C  0.90628213  0.33003189  0.64967883     0.82000
N228        N  0.88930673  0.35165046  0.66720757    -0.80600
C229        C  0.09368902  0.36035682  0.66045347     0.79400
N230        N  0.06144609  0.35788936  0.66357718    -0.78900
C231        C  0.04466302  0.33610230  0.64592423     0.81900
N232        N  0.06056309  0.31611265  0.62565937    -0.78800
C233        C  0.09293124  0.31818831  0.62250004     0.82000
N234        N  0.10916268  0.34092690  0.63944784    -0.80600
O235        O  0.15681385  0.46938116  0.75419512    -0.72600
O236        O  0.20392899  0.53477087  0.79728575    -0.72800
O237        O  0.15858570  0.53329562  0.75145826    -0.72700
O238        O  0.20221613  0.47050444  0.80036299    -0.72700
O239        O  0.23798718  0.46616154  0.76286542    -0.72600
O240        O  0.19671111  0.53232814  0.71610305    -0.72700
O241        O  0.24176168  0.53080371  0.76200009    -0.72600
O242        O  0.19286417  0.46813753  0.71688693    -0.72800
V243        V  0.18114772  0.50191405  0.77516952     1.35200
V244        V  0.21667381  0.49936536  0.74020330     1.35200
C245        C  0.16624935  0.45840044  0.72753515     0.76700
C246        C  0.23077746  0.54419049  0.78692066     0.76700
C247        C  0.17026122  0.54356737  0.72556403     0.76600
C248        C  0.22740606  0.45747300  0.78983394     0.76500
C249        C  0.86322990  0.63112267  0.65319540     0.79400
N250        N  0.89573794  0.63249658  0.65358827    -0.78900
C251        C  0.91146669  0.65272037  0.63358101     0.81900
N252        N  0.89444263  0.67204969  0.61374158    -0.78800
C253        C  0.86189835  0.67093489  0.61317686     0.82000
N254        N  0.84661632  0.64984057  0.63252776    -0.80600
C255        C  0.09843184  0.63335176  0.64849944     0.79400
N256        N  0.06614803  0.63577923  0.65118195    -0.78900
C257        C  0.04969188  0.65768928  0.63385290     0.81900
N258        N  0.06578209  0.67758809  0.61387389    -0.78800
C259        C  0.09816547  0.67621239  0.61139705     0.82000
N260        N  0.11421271  0.65384872  0.62878102    -0.80600
O261        O  0.16173606  0.78238680  0.45064686    -0.72600
O262        O  0.20744523  0.82798168  0.51496677    -0.72800
O263        O  0.20734319  0.82824198  0.45074921    -0.72700
O264        O  0.16189688  0.78236081  0.51466557    -0.72700
O265        O  0.19914989  0.74612280  0.51512050    -0.72600
O266        O  0.24347664  0.79082838  0.44968692    -0.72700
O267        O  0.24464172  0.79165836  0.51406996    -0.72600
O268        O  0.19818655  0.74531539  0.45101671    -0.72800
V269        V  0.18533931  0.80456979  0.48274635     1.35200
V270        V  0.22067830  0.76923434  0.48250042     1.35200
C271        C  0.17191441  0.75577207  0.44031809     0.76700
C272        C  0.23397925  0.81773290  0.52525336     0.76700
C273        C  0.23290163  0.81708231  0.43898837     0.76600
C274        C  0.17276611  0.75640481  0.52579562     0.76500
C275        C  0.86958288  0.63054644  0.30312964     0.79400
N276        N  0.85223412  0.65035998  0.32217309    -0.78900
C277        C  0.86680500  0.67272878  0.34095022     0.81900
N278        N  0.89921940  0.67502687  0.34051746    -0.78800
C279        C  0.91690359  0.65595547  0.32091894     0.82000
N280        N  0.90195687  0.63350163  0.30241375    -0.80600
C281        C  0.10452015  0.67541027  0.34880640     0.79400
N282        N  0.11985284  0.65263902  0.33118417    -0.78900
C283        C  0.10316558  0.63236460  0.31168667     0.81900
N284        N  0.07085690  0.63488046  0.31017212    -0.78800
C285        C  0.05507327  0.65664547  0.32838323     0.82000
N286        N  0.07202643  0.67709016  0.34731756    -0.80600
C287        C  0.86154591  0.36132722  0.30024888     0.79400
N288        N  0.84480471  0.34172341  0.32016494    -0.78900
C289        C  0.86014658  0.32188120  0.34095156     0.81900
N290        N  0.89270935  0.32208895  0.34197117    -0.78800
C291        C  0.90968493  0.34179535  0.32248949     0.82000
N292        N  0.89394218  0.36117043  0.30185728    -0.80600
C293        C  0.09708546  0.36047177  0.30109609     0.79400
N294        N  0.11281713  0.34082598  0.32174105    -0.78900
C295        C  0.09643169  0.31934652  0.33986053     0.81900
N296        N  0.06400692  0.31794586  0.33782807    -0.78800
C297        C  0.04792705  0.33770466  0.31767122     0.82000
N298        N  0.06455703  0.35920395  0.29976873    -0.80600
O299        O  0.20022844  0.46927102  0.15413932    -0.72600
O300        O  0.15584177  0.53053248  0.20491290    -0.72800
O301        O  0.19856270  0.53368598  0.15680333    -0.72700
O302        O  0.15757020  0.46617461  0.20238731    -0.72700
O303        O  0.19391833  0.46976622  0.23928999    -0.72600
O304        O  0.23946252  0.53007414  0.18851921    -0.72700
O305        O  0.19712978  0.53409845  0.23656970    -0.72600
O306        O  0.23645989  0.46569255  0.19142108    -0.72800
V307        V  0.17872776  0.49993086  0.18016444     1.35200
V308        V  0.21604226  0.49991081  0.21330889     1.35200
C309        C  0.22548764  0.45638947  0.16470295     0.76700
C310        C  0.16934529  0.54327909  0.22896629     0.76700
C311        C  0.22651790  0.54287710  0.16427575     0.76600
C312        C  0.16837616  0.45681609  0.22914952     0.76500
C313        C  0.15121973  0.43145627  0.24779696    -0.06900
C314        C  0.12226502  0.41910567  0.23542406    -0.18100
C315        C  0.10469140  0.39545615  0.25150571     0.10300
C316        C  0.11534498  0.38422413  0.28167141    -0.06900
C317        C  0.14431237  0.39636384  0.29401211    -0.18100
C318        C  0.16245392  0.41922773  0.27745656     0.10300
S319        S  0.06982275  0.37969550  0.23120239    -0.33100
S320        S  0.19968674  0.43129730  0.29583413    -0.33100
H321        H  0.21796470  0.42304074  0.26873869     0.28300
H322        H  0.07619138  0.34756706  0.23918326     0.28300
H323        H  0.11331058  0.42751394  0.21257923     0.18900
H324        H  0.15305434  0.38798533  0.31696117     0.18900
C325        C  0.94505019  0.34137995  0.32263354    -0.06900
C326        C  0.96062119  0.31162398  0.32225268    -0.18100
C327        C  0.99390884  0.30958674  0.31907067     0.10300
C328        C  0.01247714  0.33797404  0.31747944    -0.06900
C329        C  0.99684935  0.36773829  0.31772410    -0.18100
C330        C  0.96353789  0.36979060  0.32049084     0.10300
S331        S  0.01078027  0.27009882  0.31475622    -0.33100
S332        S  0.94640610  0.40943275  0.32262860    -0.33100
H333        H  0.92192279  0.40117546  0.34418808     0.28300
H334        H  0.03478135  0.27944904  0.29308967     0.28300
H335        H  0.94659935  0.28968138  0.32295175     0.18900
H336        H  0.01079747  0.38970945  0.31683667     0.18900
C337        C  0.15251581  0.56723085  0.24858046    -0.06900
C338        C  0.12164948  0.55971934  0.25922390    -0.18100
C339        C  0.10556173  0.57964160  0.28080643     0.10300
C340        C  0.12007941  0.60871554  0.29118497    -0.06900
C341        C  0.15099056  0.61626376  0.28014274    -0.18100
C342        C  0.16723156  0.59599302  0.25890870     0.10300
S343        S  0.06759418  0.56522074  0.29549817    -0.33100
S344        S  0.20595770  0.60886175  0.24472046    -0.33100
H345        H  0.20290817  0.59505892  0.21402889     0.28300
H346        H  0.07345608  0.57469900  0.32739772     0.28300
H347        H  0.11055352  0.53732196  0.25181804     0.18900
H348        H  0.16228285  0.63859604  0.28725757     0.18900
C349        C  0.95224914  0.65821838  0.32167904    -0.06900
C350        C  0.96727372  0.66457037  0.35120358    -0.18100
C351        C  0.00061125  0.66400950  0.35432815     0.10300
C352        C  0.01973894  0.65785619  0.32707182    -0.06900
C353        C  0.00472250  0.65216850  0.29743917    -0.18100
C354        C  0.97140403  0.65268211  0.29433696     0.10300
S355        S  0.01678751  0.66892023  0.39415839    -0.33100
S356        S  0.95513772  0.64753866  0.25457680    -0.33100
H357        H  0.93027229  0.66988795  0.25874938     0.28300
H358        H  0.03985652  0.64458904  0.39080015     0.28300
H359        H  0.95289288  0.66855640  0.37243587     0.18900
H360        H  0.01911857  0.64787854  0.27627266     0.18900
C361        C  0.12242654  0.69744510  0.37069232    -0.06900
C362        C  0.10524952  0.71309681  0.39522380    -0.18100
C363        C  0.12050207  0.73306885  0.41753026     0.10300
C364        C  0.15399501  0.73710924  0.41617038    -0.06900
C365        C  0.17128592  0.72161457  0.39194308    -0.18100
C366        C  0.15598092  0.70272898  0.36875969     0.10300
S367        S  0.09641506  0.75044202  0.44882376    -0.33100
S368        S  0.18090503  0.68759122  0.33697913    -0.33100
H369        H  0.15948516  0.69684408  0.31264593     0.28300
H370        H  0.10225801  0.78203667  0.43862613     0.28300
H371        H  0.07965160  0.70949836  0.39752192     0.18900
H372        H  0.19703855  0.72476717  0.39064667     0.18900
C373        C  0.11633390  0.69861983  0.59016811    -0.06900
C374        C  0.15004590  0.69899806  0.59255175    -0.18100
C375        C  0.16895042  0.71853884  0.57303425     0.10300
C376        C  0.15425055  0.73790571  0.54961860    -0.06900
C377        C  0.12072868  0.73829835  0.54754595    -0.18100
C378        C  0.10166577  0.71927102  0.56744385     0.10300
S379        S  0.21159721  0.71837761  0.58007180    -0.33100
S380        S  0.05905747  0.72211163  0.56123334    -0.33100
H381        H  0.05363847  0.73441105  0.59221946     0.28300
H382        H  0.21563653  0.75149288  0.57494994     0.28300
H383        H  0.16207037  0.68419500  0.61007874     0.18900
H384        H  0.10916853  0.75310144  0.52967006     0.18900
C385        C  0.94685172  0.65352884  0.63322307    -0.06900
C386        C  0.96343114  0.65379870  0.66252773    -0.18100
C387        C  0.99687891  0.65631047  0.66359516     0.10300
C388        C  0.01436417  0.65807910  0.63469905    -0.06900
C389        C  0.99778810  0.65782184  0.60544097    -0.18100
C390        C  0.96443739  0.65493931  0.60434304     0.10300
S391        S  0.01562232  0.65852965  0.70252026    -0.33100
S392        S  0.94613857  0.65086608  0.56533350    -0.33100
H393        H  0.92271742  0.62860827  0.57500062     0.28300
H394        H  0.04055164  0.67921312  0.69316896     0.28300
H395        H  0.95016622  0.65292935  0.68480929     0.18900
H396        H  0.01105365  0.65838954  0.58314857     0.18900
C397        C  0.15257341  0.56713576  0.70631614    -0.06900
C398        C  0.12018032  0.56101627  0.69990118    -0.18100
C399        C  0.10227894  0.58115367  0.68010700     0.10300
C400        C  0.11658943  0.60927856  0.66743210    -0.06900
C401        C  0.14923913  0.61515861  0.67386450    -0.18100
C402        C  0.16726804  0.59451163  0.69309710     0.10300
S403        S  0.06215273  0.56803937  0.67058057    -0.33100
S404        S  0.20844972  0.60519099  0.70099106    -0.33100
H405        H  0.20898093  0.59362037  0.73258486     0.28300
H406        H  0.06490985  0.57492126  0.63772047     0.28300
H407        H  0.10904250  0.53955654  0.70935646     0.18900
H408        H  0.16075296  0.63646134  0.66455193     0.18900
C409        C  0.14671948  0.43449783  0.70957642    -0.06900
C410        C  0.12526940  0.41498197  0.72666074    -0.18100
C411        C  0.10784695  0.39050273  0.71142729     0.10300
C412        C  0.11168993  0.38527761  0.67820232    -0.06900
C413        C  0.13258388  0.40509153  0.66098085    -0.18100
C414        C  0.14940557  0.43005027  0.67601769     0.10300
S415        S  0.08232176  0.36590851  0.73603278    -0.33100
S416        S  0.17207262  0.45647945  0.65055068    -0.33100
H417        H  0.16219105  0.48466879  0.66637992     0.28300
H418        H  0.08824195  0.33715627  0.71930175     0.28300
H419        H  0.12269640  0.41815477  0.75229953     0.18900
H420        H  0.13492670  0.40184151  0.63531603     0.18900
C421        C  0.94170353  0.33019789  0.65153501    -0.06900
C422        C  0.95715213  0.36009939  0.65338565    -0.18100
C423        C  0.99041228  0.36278135  0.65102239     0.10300
C424        C  0.00926612  0.33478546  0.64789055    -0.06900
C425        C  0.99389084  0.30476375  0.64662651    -0.18100
C426        C  0.96047336  0.30214414  0.64870038     0.10300
S427        S  0.00676050  0.40284392  0.64946106    -0.33100
S428        S  0.94351306  0.26235107  0.64889262    -0.33100
H429        H  0.91804083  0.27004352  0.66952670     0.28300
H430        H  0.02870497  0.39585221  0.62486923     0.28300
H431        H  0.94306171  0.38186233  0.65492171     0.18900
H432        H  0.00805385  0.28310132  0.64459130     0.18900
C433        C  0.24245265  0.43172532  0.14603786    -0.06900
C434        C  0.25084609  0.43857634  0.11433736    -0.18100
C435        C  0.27114205  0.41826851  0.09697894     0.10300
C436        C  0.28246989  0.38956763  0.11118642    -0.06900
C437        C  0.27302580  0.38239977  0.14268146    -0.18100
C438        C  0.25311342  0.40296853  0.16008672     0.10300
S439        S  0.28349403  0.43197359  0.05801486    -0.33100
S440        S  0.24145545  0.39079996  0.19981626    -0.33100
H441        H  0.21102558  0.40518916  0.19896653     0.28300
H442        H  0.31595793  0.42423154  0.06272578     0.28300
H443        H  0.24304246  0.46089458  0.10364261     0.18900
H444        H  0.28087207  0.36033160  0.15381651     0.18900
C445        C  0.27649165  0.38371323  0.84231542    -0.06900
C446        C  0.26831786  0.41271652  0.85756040    -0.18100
C447        C  0.25241787  0.43715434  0.84103555     0.10300
C448        C  0.24410647  0.43261936  0.80850484    -0.06900
C449        C  0.25132055  0.40337242  0.79350347    -0.18100
C450        C  0.26662674  0.37868021  0.81016922     0.10300
S451        S  0.24515849  0.47425377  0.86221075    -0.33100
S452        S  0.27122276  0.34087566  0.78949690    -0.33100
H453        H  0.26626939  0.32195133  0.81687895     0.28300
H454        H  0.25148578  0.49427388  0.83594309     0.28300
H455        H  0.27564312  0.41704857  0.88214548     0.18900
H456        H  0.24415661  0.39940462  0.76879924     0.18900
C457        C  0.31656042  0.33701467  0.94337514    -0.06900
C458        C  0.34610130  0.33303364  0.95907124    -0.18100
C459        C  0.34863113  0.33468459  0.99242840     0.10300
C460        C  0.32083695  0.33980714  0.01106633    -0.06900
C461        C  0.29115611  0.34293365  0.99546831    -0.18100
C462        C  0.28861579  0.34104352  0.96205963     0.10300
S463        S  0.38839502  0.33233883  0.00923519    -0.33100
S464        S  0.24888454  0.34230191  0.94510604    -0.33100
H465        H  0.25516427  0.31946542  0.92098934     0.28300
H466        H  0.38377259  0.35762198  0.03120363     0.28300
H467        H  0.36780315  0.33004560  0.94519561     0.18900
H468        H  0.26956988  0.34616336  0.00948019     0.18900
C469        C  0.24408949  0.56787708  0.14555353    -0.06900
C470        C  0.27544485  0.57597636  0.15520905    -0.18100
C471        C  0.29365648  0.59896564  0.13896959     0.10300
C472        C  0.28021179  0.61551022  0.11266907    -0.06900
C473        C  0.24894915  0.60759284  0.10291671    -0.18100
C474        C  0.23095182  0.58400794  0.11867391     0.10300
S475        S  0.33445480  0.60461312  0.15220281    -0.33100
S476        S  0.19145243  0.57613775  0.10305745    -0.33100
H477        H  0.19793766  0.54350400  0.09721214     0.28300
H478        H  0.34718738  0.60646570  0.12108000     0.28300
H479        H  0.28634359  0.56384410  0.17534444     0.18900
H480        H  0.23831599  0.61997488  0.08277406     0.18900
C481        C  0.40988361  0.73712583  0.14308403    -0.06900
C482        C  0.38273302  0.72726030  0.16018288    -0.18100
C483        C  0.35709745  0.71161863  0.14494821     0.10300
C484        C  0.35885973  0.70442817  0.11174437    -0.06900
C485        C  0.38588044  0.71498358  0.09459874    -0.18100
C486        C  0.41133693  0.73086488  0.10987309     0.10300
S487        S  0.32245604  0.70302144  0.16917526    -0.33100
S488        S  0.44603373  0.74024710  0.08616580    -0.33100
H489        H  0.46803456  0.73141676  0.11012268     0.28300
H490        H  0.30021004  0.71095929  0.14511658     0.28300
H491        H  0.38109495  0.73256554  0.18557549     0.18900
H492        H  0.38798992  0.70956728  0.06928230     0.18900
C493        C  0.28720284  0.61457196  0.83838139    -0.06900
C494        C  0.25382867  0.61397457  0.84195736    -0.18100
C495        C  0.23472199  0.59249692  0.82441586     0.10300
C496        C  0.24927837  0.56975460  0.80375741    -0.06900
C497        C  0.28272650  0.57075974  0.79987599    -0.18100
C498        C  0.30175579  0.59271400  0.81695709     0.10300
S499        S  0.19194782  0.59679000  0.82823941    -0.33100
S500        S  0.34454325  0.59038326  0.81159354    -0.33100
H501        H  0.35226912  0.59680873  0.84382482     0.28300
H502        H  0.18592477  0.59322470  0.79520206     0.28300
H503        H  0.24243737  0.63108966  0.85786361     0.18900
H504        H  0.29434659  0.55362371  0.78418222     0.18900
C505        C  0.31533380  0.66243902  0.94272245    -0.06900
C506        C  0.31897845  0.69195361  0.95877713    -0.18100
C507        C  0.31589094  0.69438615  0.99216359     0.10300
C508        C  0.31002496  0.66647841  0.01050747    -0.06900
C509        C  0.30555848  0.63715616  0.99433554    -0.18100
C510        C  0.30849958  0.63471225  0.96102327     0.10300
S511        S  0.31824374  0.73403116  0.00950306    -0.33100
S512        S  0.30569422  0.59493178  0.94401658    -0.33100
H513        H  0.33239193  0.59875788  0.92385407     0.28300
H514        H  0.29462243  0.72835631  0.03280988     0.28300
H515        H  0.32362858  0.71350477  0.94513415     0.18900
H516        H  0.30135641  0.61545482  0.00787934     0.18900
C517        C  0.60304364  0.70676066  0.11943822    -0.06900
C518        C  0.58678475  0.73096674  0.10248776    -0.18100
C519        C  0.56099630  0.74777677  0.11575782     0.10300
C520        C  0.55038438  0.74035592  0.14705061    -0.06900
C521        C  0.56750379  0.71736085  0.16459935    -0.18100
C522        C  0.59401336  0.70136336  0.15175696     0.10300
S523        S  0.54261692  0.77771697  0.09079722    -0.33100
S524        S  0.61533991  0.67556938  0.17882831    -0.33100
H525        H  0.64533683  0.68929333  0.17180114     0.28300
H526        H  0.51132334  0.76680509  0.09628846     0.28300
H527        H  0.59361902  0.73655272  0.07812859     0.18900
H528        H  0.56074656  0.71232474  0.18911860     0.18900
C529        C  0.65028063  0.67277989  0.94808925    -0.06900
C530        C  0.62166483  0.67914361  0.96457128    -0.18100
C531        C  0.62016411  0.67835140  0.99801490     0.10300
C532        C  0.64819100  0.67190152  0.01601482    -0.06900
C533        C  0.67706016  0.66654591  0.99962791    -0.18100
C534        C  0.67853248  0.66738621  0.96608601     0.10300
S535        S  0.58109027  0.68308345  0.01576010    -0.33100
S536        S  0.71740876  0.66272959  0.94798514    -0.33100
H537        H  0.71156344  0.68440304  0.92292000     0.28300
H538        H  0.58481905  0.65756176  0.03738524     0.28300
H539        H  0.59969730  0.68303729  0.95127276     0.18900
H540        H  0.69882603  0.66213771  0.01309841     0.18900
C541        C  0.81786207  0.56415811  0.24292294    -0.06900
C542        C  0.80992381  0.56766739  0.27546405    -0.18100
C543        C  0.82740085  0.58775908  0.29586115     0.10300
C544        C  0.85311510  0.60593738  0.28357247    -0.06900
C545        C  0.86184310  0.60198286  0.25138548    -0.18100
C546        C  0.84447708  0.58158363  0.23090748     0.10300
S547        S  0.81656750  0.58774503  0.33768081    -0.33100
S548        S  0.85676883  0.58033027  0.18964629    -0.33100
H549        H  0.82555493  0.58524503  0.17823256     0.28300
H550        H  0.84806233  0.59162001  0.34918837     0.28300
H551        H  0.79030783  0.55394996  0.28553444     0.18900
H552        H  0.88155423  0.61590289  0.24176257     0.18900
C553        C  0.80972329  0.42873906  0.24099402    -0.06900
C554        C  0.84258081  0.42406654  0.23604086    -0.18100
C555        C  0.86002713  0.40147420  0.25369578     0.10300
C556        C  0.84443593  0.38372692  0.27822747    -0.06900
C557        C  0.81120924  0.38772621  0.28219270    -0.18100
C558        C  0.79370302  0.40918285  0.26346391     0.10300
S559        S  0.90176932  0.39578520  0.24346608    -0.33100
S560        S  0.75082362  0.40922630  0.26861342    -0.33100
H561        H  0.74411751  0.41114972  0.23560059     0.28300
H562        H  0.90194530  0.41394936  0.21516109     0.28300
H563        H  0.85482423  0.43861208  0.21847344     0.18900
H564        H  0.79842447  0.37382905  0.29993547     0.18900
C565        C  0.68185304  0.61775640  0.11473933    -0.06900
C566        C  0.71400576  0.61294323  0.10623540    -0.18100
C567        C  0.73281066  0.58965576  0.12140283     0.10300
C568        C  0.71918606  0.57016565  0.14559094    -0.06900
C569        C  0.68685237  0.57494689  0.15368474    -0.18100
C570        C  0.66803122  0.59782963  0.13823620     0.10300
S571        S  0.77413523  0.58719804  0.10954060    -0.33100
S572        S  0.62598440  0.59835431  0.14794900    -0.33100
H573        H  0.61548237  0.60533939  0.11671583     0.28300
H574        H  0.78524334  0.58737183  0.14127580     0.28300
H575        H  0.72483263  0.62802559  0.08814234     0.18900
H576        H  0.67560258  0.55989742  0.17153935     0.18900
C577        C  0.67520881  0.38396096  0.11572377    -0.06900
C578        C  0.70624971  0.39044746  0.10465562    -0.18100
C579        C  0.72572417  0.41367779  0.11934414     0.10300
C580        C  0.71405919  0.43137933  0.14599656    -0.06900
C581        C  0.68318584  0.42420049  0.15746244    -0.18100
C582        C  0.66367715  0.40112900  0.14261125     0.10300
S583        S  0.76544772  0.41844687  0.10334215    -0.33100
S584        S  0.62379152  0.39612153  0.15831864    -0.33100
H585        H  0.60894836  0.39444324  0.12804969     0.28300
H586        H  0.75965124  0.45014062  0.09345459     0.28300
H587        H  0.71556071  0.37712939  0.08434477     0.18900
H588        H  0.67366493  0.43720620  0.17785433     0.18900
C589        C  0.64088070  0.33463103  0.94630586    -0.06900
C590        C  0.64146572  0.36399764  0.96289023    -0.18100
C591        C  0.63948757  0.36543048  0.99623371     0.10300
C592        C  0.63790273  0.33671591  0.01405555    -0.06900
C593        C  0.63681192  0.30723980  0.99752859    -0.18100
C594        C  0.63851937  0.30586195  0.96396365     0.10300
S595        S  0.63695507  0.40482169  0.01416037    -0.33100
S596        S  0.63905500  0.26672285  0.94538271    -0.33100
H597        H  0.66039935  0.27516940  0.92078587     0.28300
H598        H  0.61419134  0.39600136  0.03733862     0.28300
H599        H  0.64220106  0.38624564  0.94969341     0.18900
H600        H  0.63560371  0.28505570  0.01088730     0.18900
C601        C  0.14156804  0.26320196  0.54969272    -0.06900
C602        C  0.15829762  0.27329377  0.57710837    -0.18100
C603        C  0.14283896  0.28961863  0.60199138     0.10300
C604        C  0.10993907  0.29748188  0.59897748    -0.06900
C605        C  0.09314846  0.28677602  0.57164469    -0.18100
C606        C  0.10856059  0.26994127  0.54703608     0.10300
S607        S  0.16626914  0.29799943  0.63743060    -0.33100
S608        S  0.08518147  0.25942134  0.51211646    -0.33100
H609        H  0.10972086  0.26546472  0.48991617     0.28300
H610        H  0.14135092  0.29069987  0.65886922     0.28300
H611        H  0.18349071  0.26756504  0.57957933     0.18900
H612        H  0.06804004  0.29259989  0.56874251     0.18900
C613        C  0.14336618  0.26642195  0.41453110    -0.06900
C614        C  0.12494997  0.25006581  0.39140387    -0.18100
C615        C  0.11010274  0.26647915  0.36623753     0.10300
C616        C  0.11340502  0.30014028  0.36410341    -0.06900
C617        C  0.13156732  0.31652391  0.38726521    -0.18100
C618        C  0.14588246  0.30026105  0.41274953     0.10300
S619        S  0.08858792  0.24285733  0.33695947    -0.33100
S620        S  0.16503826  0.32446173  0.44322308    -0.33100
H621        H  0.15312342  0.30634597  0.46897014     0.28300
H622        H  0.09440537  0.26338048  0.31097813     0.28300
H623        H  0.12283805  0.22417212  0.39236587     0.18900
H624        H  0.13344863  0.34244648  0.38627493     0.18900
C625        C  0.55159658  0.26435432  0.80610165    -0.06900
C626        C  0.55683837  0.29673138  0.79841267    -0.18100
C627        C  0.57842963  0.31579998  0.81580525     0.10300
C628        C  0.59596495  0.30231047  0.84147082    -0.06900
C629        C  0.59139122  0.26977136  0.84871016    -0.18100
C630        C  0.57003057  0.25057935  0.83103348     0.10300
S631        S  0.58066878  0.35764948  0.80522569    -0.33100
S632        S  0.56870013  0.20850094  0.84066508    -0.33100
H633        H  0.56766189  0.19826702  0.80847771     0.28300
H634        H  0.58160906  0.36881538  0.83708917     0.28300
H635        H  0.54299523  0.30780283  0.77947844     0.18900
H636        H  0.60521260  0.25895744  0.86782219     0.18900
C637        C  0.41504484  0.26994974  0.81045621    -0.06900
C638        C  0.40139554  0.29677043  0.79540634    -0.18100
C639        C  0.37778952  0.31547056  0.81037750     0.10300
C640        C  0.36637348  0.30655768  0.84106725    -0.06900
C641        C  0.38023792  0.27983840  0.85614432    -0.18100
C642        C  0.40467695  0.26205729  0.84171410     0.10300
S643        S  0.36399665  0.35117437  0.79011366    -0.33100
S644        S  0.42220205  0.23054471  0.86533176    -0.33100
H645        H  0.45389044  0.24031103  0.85912860     0.28300
H646        H  0.38603541  0.35061825  0.76468826     0.28300
H647        H  0.40926795  0.30319034  0.77163317     0.18900
H648        H  0.37235328  0.27284363  0.87983010     0.18900
C649        C  0.27021660  0.13781478  0.60168473    -0.06900
C650        C  0.25720989  0.11953344  0.57626275    -0.18100
C651        C  0.24071645  0.13395730  0.55093025     0.10300
C652        C  0.23666843  0.16753663  0.55082365    -0.06900
C653        C  0.24873575  0.18576786  0.57651108    -0.18100
C654        C  0.26469246  0.17134863  0.60216899     0.10300
S655        S  0.22731323  0.10841587  0.51854154    -0.33100
S656        S  0.27572375  0.19709590  0.63525431    -0.33100
H657        H  0.26749396  0.17459830  0.65889918     0.28300
H658        H  0.23515544  0.13022567  0.49417340     0.28300
H659        H  0.26102064  0.09385777  0.57526678     0.18900
H660        H  0.24491834  0.21147519  0.57702206     0.18900
C661        C  0.40781606  0.17274781  0.71434243    -0.06900
C662        C  0.41309435  0.14094871  0.70483125    -0.18100
C663        C  0.39059393  0.12424675  0.68627582     0.10300
C664        C  0.36111273  0.13905768  0.67820932    -0.06900
C665        C  0.35594401  0.17100762  0.68779586    -0.18100
C666        C  0.37885958  0.18791609  0.70577569     0.10300
S667        S  0.40226352  0.08510015  0.67190425    -0.33100
S668        S  0.36917078  0.22823627  0.71822101    -0.33100
H669        H  0.38506222  0.22667064  0.74792212     0.28300
H670        H  0.38935874  0.08940199  0.64103860     0.28300
H671        H  0.43563159  0.12947991  0.71070772     0.18900
H672        H  0.33350352  0.18267170  0.68205089     0.18900
C673        C  0.28564390  0.86690978  0.60017047    -0.06900
C674        C  0.26831921  0.88436628  0.57712502    -0.18100
C675        C  0.25195749  0.86914089  0.55214622     0.10300
C676        C  0.25195334  0.83535798  0.55015747    -0.06900
C677        C  0.26880570  0.81770701  0.57315293    -0.18100
C678        C  0.28513128  0.83287067  0.59831380     0.10300
S679        S  0.23341706  0.89441577  0.52251610    -0.33100
S680        S  0.30341718  0.80692686  0.62749561    -0.33100
H681        H  0.29073330  0.82379403  0.65384798     0.28300
H682        H  0.24303158  0.87537216  0.49637461     0.28300
H683        H  0.26828655  0.91032869  0.57768467     0.18900
H684        H  0.26847730  0.79169848  0.57207098     0.18900
C685        C  0.31737062  0.97066116  0.64627800    -0.06900
C686        C  0.32026048  0.98686288  0.67570120    -0.18100
C687        C  0.31558279  0.02004801  0.67791231     0.10300
C688        C  0.30827745  0.03770201  0.65000464    -0.06900
C689        C  0.30483503  0.02140848  0.62073362    -0.18100
C690        C  0.30992462  0.98841013  0.61839521     0.10300
S691        S  0.31824763  0.03818353  0.71714324    -0.33100
S692        S  0.30918367  0.97122888  0.57862685    -0.33100
H693        H  0.33519118  0.95048322  0.58386746     0.28300
H694        H  0.29513963  0.06196187  0.71126212     0.28300
H695        H  0.32552019  0.97348297  0.69727173     0.18900
H696        H  0.30006598  0.03477617  0.59903574     0.18900
C697        C  0.54263879  0.16599489  0.70837830    -0.06900
C698        C  0.55497279  0.17968998  0.68027716    -0.18100
C699        C  0.57710368  0.16350825  0.66102203     0.10300
C700        C  0.58891985  0.13313737  0.67060493    -0.06900
C701        C  0.57621061  0.11916670  0.69839386    -0.18100
C702        C  0.55288605  0.13472558  0.71682745     0.10300
S703        S  0.58764562  0.18259659  0.62381194    -0.33100
S704        S  0.53675526  0.11262675  0.75009095    -0.33100
H705        H  0.50470602  0.11809598  0.74109090     0.28300
H706        H  0.58515321  0.15418296  0.60558213     0.28300
H707        H  0.54695817  0.20320069  0.67277672     0.18900
H708        H  0.58438855  0.09571554  0.70590482     0.18900
C709        C  0.64558704  0.96388007  0.63816728    -0.06900
C710        C  0.63758808  0.98032200  0.66658104    -0.18100
C711        C  0.63673136  0.01390487  0.66805245     0.10300
C712        C  0.64355095  0.03200790  0.64031779    -0.06900
C713        C  0.65207209  0.01567132  0.61209770    -0.18100
C714        C  0.65267068  0.98213774  0.61049602     0.10300
S715        S  0.62818289  0.03194884  0.70642940    -0.33100
S716        S  0.66039334  0.96464724  0.57170007    -0.33100
H717        H  0.63468690  0.94280571  0.57344731     0.28300
H718        H  0.65017222  0.05733182  0.70296105     0.28300
H719        H  0.63247849  0.96692459  0.68816793     0.18900
H720        H  0.65702027  0.02915490  0.59051415     0.18900
C721        C  0.80430913  0.26784877  0.40956983    -0.06900
C722        C  0.83370531  0.25572745  0.39836495    -0.18100
C723        C  0.85204378  0.27211219  0.37544925     0.10300
C724        C  0.84126135  0.30200187  0.36370903    -0.06900
C725        C  0.81155401  0.31370685  0.37421596    -0.18100
C726        C  0.79288876  0.29699566  0.39640903     0.10300
S727        S  0.88837193  0.25371940  0.36070669    -0.33100
S728        S  0.75482817  0.31457035  0.40649284    -0.33100
H729        H  0.73752086  0.28654093  0.39870848     0.28300
H730        H  0.88479839  0.22404622  0.37620997     0.28300
H731        H  0.84253716  0.23324505  0.40770334     0.18900
H732        H  0.80271692  0.33636588  0.36518472     0.18900
C733        C  0.81015470  0.26629255  0.54591730    -0.06900
C734        C  0.82726154  0.24850367  0.56873880    -0.18100
C735        C  0.84312370  0.26364462  0.59427319     0.10300
C736        C  0.84241093  0.29741340  0.59684223    -0.06900
C737        C  0.82576491  0.31521343  0.57381834    -0.18100
C738        C  0.81017011  0.30017134  0.54816928     0.10300
S739        S  0.86214474  0.23843682  0.62362536    -0.33100
S740        S  0.79216822  0.32572311  0.51842406    -0.33100
H741        H  0.80137839  0.30657270  0.49215494     0.28300
H742        H  0.85644255  0.25875568  0.64998669     0.28300
H743        H  0.82725298  0.22252482  0.56740769     0.18900
H744        H  0.82562580  0.34119273  0.57537711     0.18900
C745        C  0.71179797  0.16928121  0.54713807    -0.06900
C746        C  0.70625810  0.18320432  0.57725419    -0.18100
C747        C  0.69057578  0.16610771  0.60142609     0.10300
C748        C  0.67929716  0.13463067  0.59512377    -0.06900
C749        C  0.68520561  0.12070273  0.56501270    -0.18100
C750        C  0.70090524  0.13777843  0.54094511     0.10300
S751        S  0.68701473  0.18530151  0.64007038    -0.33100
S752        S  0.70437940  0.11891509  0.50215792    -0.33100
H753        H  0.69832147  0.14708360  0.48488063     0.28300
H754        H  0.69053032  0.15691333  0.65782112     0.28300
H755        H  0.71490995  0.20725176  0.58221654     0.18900
H756        H  0.67620578  0.09686670  0.55962910     0.18900
C757        C  0.66568000  0.13402291  0.37417770    -0.06900
C758        C  0.69843957  0.13684835  0.36751323    -0.18100
C759        C  0.71855999  0.15531688  0.38719381     0.10300
C760        C  0.70569357  0.17087019  0.41443616    -0.06900
C761        C  0.67292097  0.16769390  0.42114772    -0.18100
C762        C  0.65288235  0.14908210  0.40153012     0.10300
S763        S  0.75993072  0.15924350  0.37547565    -0.33100
S764        S  0.61148306  0.14314365  0.41248181    -0.33100
H765        H  0.61292661  0.15922309  0.44216887     0.28300
H766        H  0.76306595  0.19144593  0.38532134     0.28300
H767        H  0.70821800  0.12526443  0.34637556     0.18900
H768        H  0.66321326  0.17913622  0.44236225     0.18900
C769        C  0.59407047  0.86344522  0.27919453    -0.06900
C770        C  0.56599998  0.88005406  0.27059971    -0.18100
C771        C  0.54119415  0.86498482  0.25356738     0.10300
C772        C  0.54437820  0.83254866  0.24434992    -0.06900
C773        C  0.57238560  0.81595641  0.25254845    -0.18100
C774        C  0.59743655  0.83111234  0.26916621     0.10300
S775        S  0.50541025  0.88792095  0.24597093    -0.33100
S776        S  0.63355797  0.80826218  0.27496308    -0.33100
H777        H  0.65429604  0.83422576  0.26901841     0.28300
H778        H  0.48402279  0.86214722  0.25015264     0.28300
H779        H  0.56273599  0.90471304  0.27816522     0.18900
H780        H  0.57522316  0.79122769  0.24497815     0.18900
C781        C  0.63880176  0.96439487  0.32011591    -0.06900
C782        C  0.60839718  0.97861969  0.31855526    -0.18100
C783        C  0.60439989  0.01165619  0.32238579     0.10300
C784        C  0.63155212  0.03160792  0.32648992    -0.06900
C785        C  0.66203731  0.01743294  0.32822944    -0.18100
C786        C  0.66597223  0.98417033  0.32498299     0.10300
S787        S  0.56380990  0.02626218  0.32429491    -0.33100
S788        S  0.70628038  0.96878682  0.32603452    -0.33100
H789        H  0.70083334  0.94417989  0.30346469     0.28300
H790        H  0.56994245  0.04853330  0.34904194     0.28300
H791        H  0.58728265  0.96367747  0.31581028     0.18900
H792        H  0.68304354  0.03242925  0.33138970     0.18900
C793        C  0.41314239  0.27235043  0.14982386    -0.06900
C794        C  0.39569122  0.25740785  0.12500082    -0.18100
C795        C  0.37223642  0.27393814  0.10769616     0.10300
C796        C  0.36603212  0.30651039  0.11485057    -0.06900
C797        C  0.38328742  0.32149953  0.13962069    -0.18100
C798        C  0.40704452  0.30517791  0.15665606     0.10300
S799        S  0.35005607  0.25153440  0.07791431    -0.33100
S800        S  0.42954780  0.32847782  0.18547019    -0.33100
H801        H  0.45945885  0.31829315  0.17373502     0.28300
H802        H  0.32056134  0.26651613  0.08424800     0.28300
H803        H  0.39974786  0.23234768  0.11941886     0.18900
H804        H  0.37913003  0.34661108  0.14493714     0.18900
C805        C  0.54670551  0.26350095  0.15013464    -0.06900
C806        C  0.57535750  0.27213562  0.16548309    -0.18100
C807        C  0.59998811  0.28765315  0.14887403     0.10300
C808        C  0.59543561  0.29624288  0.11634395    -0.06900
C809        C  0.56691537  0.28677647  0.10089797    -0.18100
C810        C  0.54260188  0.27071312  0.11738648     0.10300
S811        S  0.63702121  0.29418520  0.17028091    -0.33100
S812        S  0.50610846  0.26190443  0.09582228    -0.33100
H813        H  0.48567128  0.26984637  0.12135995     0.28300
H814        H  0.65665912  0.28721242  0.14379457     0.28300
H815        H  0.57890682  0.26596593  0.19044046     0.18900
H816        H  0.56280494  0.29313742  0.07609282     0.18900
C817        C  0.58034373  0.13249894  0.29314438    -0.06900
C818        C  0.57808630  0.12454554  0.26048808    -0.18100
C819        C  0.55857073  0.14208692  0.23957457     0.10300
C820        C  0.53998642  0.16785582  0.25159098    -0.06900
C821        C  0.54188752  0.17525326  0.28446172    -0.18100
C822        C  0.56139219  0.15779751  0.30524955     0.10300
S823        S  0.55999063  0.13132323  0.19776259    -0.33100
S824        S  0.55950507  0.16795059  0.34720833    -0.33100
H825        H  0.56182642  0.13602589  0.35774249     0.28300
H826        H  0.56280013  0.16323491  0.18723432     0.28300
H827        H  0.59267431  0.10530369  0.25088407     0.18900
H828        H  0.52735299  0.19436800  0.29439494     0.18900
C829        C  0.23916573  0.16911931  0.41263086    -0.06900
C830        C  0.24185253  0.13566432  0.41422523    -0.18100
C831        C  0.26111516  0.11851990  0.39272073     0.10300
C832        C  0.27730187  0.13497895  0.36771461    -0.06900
C833        C  0.27374182  0.16853846  0.36588859    -0.18100
C834        C  0.25495963  0.18560536  0.38777629     0.10300
S835        S  0.26514657  0.07619400  0.40027935    -0.33100
S836        S  0.25114031  0.22826410  0.38182067    -0.33100
H837        H  0.21864552  0.22964174  0.39060277     0.28300
H838        H  0.29885880  0.07727185  0.40024618     0.28300
H839        H  0.22996949  0.12283674  0.43338313     0.18900
H840        H  0.28534533  0.18184807  0.34692061     0.18900
C841        C  0.35829331  0.14173336  0.28234390    -0.06900
C842        C  0.37752272  0.16429334  0.29839591    -0.18100
C843        C  0.40205710  0.18067734  0.28257943     0.10300
C844        C  0.40685487  0.17556912  0.24933362    -0.06900
C845        C  0.38691978  0.15351553  0.23314836    -0.18100
C846        C  0.36276093  0.13670867  0.24917257     0.10300
S847        S  0.42773085  0.20567021  0.30697470    -0.33100
S848        S  0.33793901  0.10992252  0.22573131    -0.33100
H849        H  0.30991427  0.11487199  0.24371499     0.28300
H850        H  0.45622555  0.19266018  0.29451925     0.28300
H851        H  0.37457646  0.16790909  0.32396219     0.18900
H852        H  0.38993910  0.14947202  0.20766631     0.18900
C853        C  0.25017174  0.83447239  0.41356202    -0.06900
C854        C  0.25515590  0.86755811  0.41714300    -0.18100
C855        C  0.27361600  0.88483856  0.39517493     0.10300
C856        C  0.28627649  0.86906970  0.36777214    -0.06900
C857        C  0.28081989  0.83590820  0.36417144    -0.18100
C858        C  0.26295748  0.81860312  0.38654260     0.10300
S859        S  0.28180199  0.92620021  0.40512851    -0.33100
S860        S  0.25595162  0.77665195  0.37839054    -0.33100
H861        H  0.22423730  0.77691465  0.38964412     0.28300
H862        H  0.31466721  0.92406772  0.39796942     0.28300
H863        H  0.24574729  0.87984213  0.43801757     0.18900
H864        H  0.28994449  0.82331379  0.34334444     0.18900
C865        C  0.36595405  0.86616625  0.28111973    -0.06900
C866        C  0.36521913  0.86942111  0.24768469    -0.18100
C867        C  0.38579239  0.85161045  0.22800093     0.10300
C868        C  0.40858284  0.83082093  0.24204463    -0.06900
C869        C  0.40900070  0.82750095  0.27552200    -0.18100
C870        C  0.38826844  0.84501831  0.29510589     0.10300
S871        S  0.38046649  0.85529331  0.18531236    -0.33100
S872        S  0.39283478  0.84059562  0.33783780    -0.33100
H873        H  0.38685285  0.87300320  0.34521721     0.28300
H874        H  0.38458227  0.82234644  0.17900404     0.28300
H875        H  0.34778163  0.88520519  0.23676362     0.18900
H876        H  0.42646469  0.81196400  0.28674659     0.18900
C877        C  0.31685582  0.96860546  0.31219364    -0.06900
C878        C  0.34583077  0.98568039  0.31071225    -0.18100
C879        C  0.34651141  0.01917207  0.31285364     0.10300
C880        C  0.31744146  0.03635264  0.31543006    -0.06900
C881        C  0.28842518  0.01929470  0.31637280    -0.18100
C882        C  0.28778714  0.98575675  0.31447314     0.10300
S883        S  0.38536423  0.03814763  0.31483640    -0.33100
S884        S  0.24910173  0.96640807  0.31403395    -0.33100
H885        H  0.25828848  0.94091809  0.29385728     0.28300
H886        H  0.37664092  0.06086949  0.33827295     0.28300
H887        H  0.36829699  0.97275751  0.30965646     0.18900
H888        H  0.26600701  0.03223271  0.31809509     0.18900
C889        C  0.67513217  0.86161086  0.36598127    -0.06900
C890        C  0.68264632  0.82932714  0.35937605    -0.18100
C891        C  0.70086448  0.81092333  0.38066809     0.10300
C892        C  0.71183224  0.82474813  0.40963202    -0.06900
C893        C  0.70475729  0.85695026  0.41623586    -0.18100
C894        C  0.68612277  0.87527769  0.39526714     0.10300
S895        S  0.71051973  0.77043141  0.36879979    -0.33100
S896        S  0.67568488  0.91505367  0.40873466    -0.33100
H897        H  0.64315874  0.91192465  0.40027049     0.28300
H898        H  0.74142646  0.77056085  0.38231234     0.28300
H899        H  0.67486739  0.81839066  0.33707731     0.18900
H900        H  0.71274237  0.86758178  0.43864052     0.18900
C901        C  0.81032854  0.72535156  0.54188042    -0.06900
C902        C  0.79410749  0.71365964  0.56877213    -0.18100
C903        C  0.81032542  0.69743996  0.59319043     0.10300
C904        C  0.84359787  0.69109667  0.59011621    -0.06900
C905        C  0.85976696  0.70322014  0.56318874    -0.18100
C906        C  0.84362821  0.72009150  0.53920333     0.10300
S907        S  0.78721501  0.68750928  0.62821630    -0.33100
S908        S  0.86671866  0.73279300  0.50505415    -0.33100
H909        H  0.84275605  0.72561225  0.48234356     0.28300
H910        H  0.81105879  0.69774285  0.64991716     0.28300
H911        H  0.76869981  0.71829160  0.57138673     0.18900
H912        H  0.88512070  0.69876055  0.56013968     0.18900
C913        C  0.71424920  0.82238303  0.54663488    -0.06900
C914        C  0.72684316  0.85201344  0.55706956    -0.18100
C915        C  0.71184956  0.87022577  0.58093952     0.10300
C916        C  0.68247869  0.85959574  0.59401469    -0.06900
C917        C  0.67011013  0.82979323  0.58395954    -0.18100
C918        C  0.68585159  0.81085148  0.56123001     0.10300
S919        S  0.73254430  0.90574508  0.59467129    -0.33100
S920        S  0.66859149  0.77197560  0.55301239    -0.33100
H921        H  0.69767240  0.75563732  0.55784131     0.28300
H922        H  0.72581732  0.90048643  0.62725084     0.28300
H923        H  0.74894862  0.86102656  0.54691534     0.18900
H924        H  0.64790857  0.82090294  0.59403605     0.18900
C925        C  0.80834302  0.72693533  0.40708494    -0.06900
C926        C  0.83772097  0.73964277  0.39651360    -0.18100
C927        C  0.85711568  0.72312687  0.37455276     0.10300
C928        C  0.84729075  0.69259561  0.36315233    -0.06900
C929        C  0.81766827  0.68023396  0.37322853    -0.18100
C930        C  0.79798511  0.69704821  0.39438122     0.10300
S931        S  0.89336939  0.74227865  0.36049078    -0.33100
S932        S  0.75994799  0.67871514  0.40347579    -0.33100
H933        H  0.74234625  0.70644991  0.39604096     0.28300
H934        H  0.89217954  0.76950152  0.38050048     0.28300
H935        H  0.84564414  0.76270758  0.40556315     0.18900
H936        H  0.80954273  0.65707428  0.36454313     0.18900
C937        C  0.41403907  0.73797107  0.80962125    -0.06900
C938        C  0.41645580  0.73485527  0.84295583    -0.18100
C939        C  0.39521270  0.71540948  0.86016162     0.10300
C940        C  0.36974356  0.69940587  0.84395628    -0.06900
C941        C  0.36699369  0.70345674  0.81055190    -0.18100
C942        C  0.38856202  0.72251549  0.79338969     0.10300
S943        S  0.40383285  0.71055907  0.90216695    -0.33100
S944        S  0.38150255  0.72702445  0.75098698    -0.33100
H945        H  0.39155982  0.75924886  0.74973128     0.28300
H946        H  0.40192294  0.67685246  0.90082095     0.28300
H947        H  0.43614285  0.74634235  0.85554853     0.18900
H948        H  0.34757732  0.69203226  0.79752731     0.18900
C949        C  0.55397711  0.83146264  0.71611307    -0.06900
C950        C  0.57956516  0.81379457  0.70353840    -0.18100
C951        C  0.60440247  0.82873714  0.68677477     0.10300
C952        C  0.60318455  0.86232183  0.68114303    -0.06900
C953        C  0.57770287  0.87993787  0.69448313    -0.18100
C954        C  0.55313378  0.86494582  0.71152034     0.10300
S955        S  0.63715764  0.80336163  0.67460323    -0.33100
S956        S  0.52023982  0.88961512  0.72470653    -0.33100
H957        H  0.49633980  0.86713004  0.71652895     0.28300
H958        H  0.66093790  0.82536536  0.68435949     0.28300
H959        H  0.58061219  0.78813883  0.70749048     0.18900
H960        H  0.57597163  0.90552982  0.69051028     0.18900
C961        C  0.55203975  0.73565331  0.81207714    -0.06900
C962        C  0.55411463  0.70229748  0.80736678    -0.18100
C963        C  0.57637117  0.68370765  0.82415064     0.10300
C964        C  0.59763101  0.69862171  0.84606944    -0.06900
C965        C  0.59569425  0.73191714  0.85079368    -0.18100
C966        C  0.57376009  0.75060717  0.83366564     0.10300
S967        S  0.57517299  0.64091411  0.81765898    -0.33100
S968        S  0.57629396  0.79347222  0.83911818    -0.33100
H969        H  0.57383733  0.80026089  0.80619587     0.28300
H970        H  0.58119756  0.63290851  0.84981382     0.28300
H971        H  0.53766947  0.69036717  0.79107541     0.18900
H972        H  0.61221076  0.74365462  0.86715782     0.18900
C973        C  0.37253067  0.87145467  0.67989396    -0.06900
C974        C  0.38957273  0.84708027  0.66418492    -0.18100
C975        C  0.41359082  0.82980106  0.67972924     0.10300
C976        C  0.42027766  0.83597151  0.71250557    -0.06900
C977        C  0.40355762  0.86087362  0.72803725    -0.18100
C978        C  0.37975632  0.87844924  0.71225909     0.10300
S979        S  0.43540554  0.80131537  0.65564416    -0.33100
S980        S  0.35830483  0.90801378  0.73538982    -0.33100
H981        H  0.32814275  0.90079201  0.72203121     0.28300
H982        H  0.46560621  0.81223742  0.66620415     0.28300
H983        H  0.38462857  0.84188175  0.63917983     0.18900
H984        H  0.40828262  0.86611844  0.75305497     0.18900
C985        C  0.71787553  0.57024238  0.81259132    -0.06900
C986        C  0.71606113  0.56833828  0.84606681    -0.18100
C987        C  0.69813161  0.59043943  0.86400418     0.10300
C988        C  0.68229833  0.61615163  0.84833448    -0.06900
C989        C  0.68513309  0.61839379  0.81479016    -0.18100
C990        C  0.70275872  0.59607315  0.79695137     0.10300
S991        S  0.69492359  0.58268501  0.90629975    -0.33100
S992        S  0.70610182  0.60269503  0.75442109    -0.33100
H993        H  0.73789277  0.59181231  0.75205497     0.28300
H994        H  0.66136032  0.58579554  0.90666639     0.28300
H995        H  0.72745065  0.54848462  0.85826386     0.18900
H996        H  0.67388740  0.63803895  0.80216898     0.18900
C997        C  0.80779798  0.43102570  0.71319184    -0.06900
C998        C  0.79038205  0.40493064  0.70084150    -0.18100
C999        C  0.80573287  0.37919750  0.68566132     0.10300
C1000       C  0.83939704  0.38014267  0.68100423    -0.06900
C1001       C  0.85658926  0.40682948  0.69274476    -0.18100
C1002       C  0.84124390  0.43218551  0.70844900     0.10300
S1003       S  0.78098424  0.34527885  0.67488823    -0.33100
S1004       S  0.86544391  0.46621533  0.72013275    -0.33100
H1005       H  0.84212197  0.48927116  0.71249476     0.28300
H1006       H  0.80304718  0.32237040  0.68597596     0.28300
H1007       H  0.76468881  0.40392086  0.70416342     0.18900
H1008       H  0.88222061  0.40852378  0.68890926     0.18900
C1009       C  0.71630083  0.43144746  0.81364279    -0.06900
C1010       C  0.70896906  0.43660376  0.84595244    -0.18100
C1011       C  0.69003985  0.41473983  0.86292768     0.10300
C1012       C  0.67913991  0.38616257  0.84765636    -0.06900
C1013       C  0.68743795  0.38083773  0.81544554    -0.18100
C1014       C  0.70586977  0.40297136  0.79846587     0.10300
S1015       S  0.67867102  0.42644020  0.90288692    -0.33100
S1016       S  0.71630909  0.39302241  0.75778151    -0.33100
H1017       H  0.74731799  0.40609896  0.75998873     0.28300
H1018       H  0.64611518  0.41884116  0.89817682     0.28300
H1019       H  0.71661879  0.45864748  0.85755974     0.18900
H1020       H  0.67984671  0.35903595  0.80336693     0.18900
C1021       C  0.81076634  0.56314894  0.71000626    -0.06900
C1022       C  0.83502009  0.58190009  0.72428076    -0.18100
C1023       C  0.85248336  0.60434889  0.70654583     0.10300
C1024       C  0.84575810  0.60825361  0.67362057    -0.06900
C1025       C  0.82176951  0.58943365  0.65928645    -0.18100
C1026       C  0.80485922  0.56649127  0.67674614     0.10300
S1027       S  0.88196863  0.62809581  0.72768754    -0.33100
S1028       S  0.77778855  0.54100764  0.65442978    -0.33100
H1029       H  0.78876779  0.51252941  0.66870791     0.28300
H1030       H  0.87637664  0.65645241  0.71045730     0.28300
H1031       H  0.84001665  0.57959433  0.74963928     0.18900
H1032       H  0.81696139  0.59179295  0.63388025     0.18900
loop_ 
_geom_bond_atom_site_label_1 
_geom_bond_atom_site_label_2 
_geom_bond_distance 
_geom_bond_site_symmetry_2 
_ccdc_geom_bond_type 
O1            V9   1.901       .  S
O1           C11   1.264       .  A
O2            V9   1.903       .  S
O2           C12   1.265       .  A
O3            V9   1.894       .  S
O3           C13   1.263       .  A
O4            V9   1.896       .  S
O4           C14   1.263       .  A
O5           V10   1.902       .  S
O5           C14   1.264       .  A
O6           V10   1.900       .  S
O6           C13   1.265       .  A
O7           V10   1.904       .  S
O7           C12   1.265       .  A
O8           V10   1.900       .  S
O8           C11   1.265       .  A
V9           V10   2.087       .  T
C11         C997   1.478       .  S
C12         C985   1.482       .  S
C13        C1021   1.483       .  S
C14        C1009   1.472       .  S
O15          V23   1.900       .  S
O15          C25   1.265       .  A
O16          V23   1.900       .  S
O16          C26   1.265       .  A
O17          V23   1.899       .  S
O17          C27   1.264       .  A
O18          V23   1.903       .  S
O18          C28   1.265       .  A
O19          V24   1.898       .  S
O19          C28   1.264       .  A
O20          V24   1.896       .  S
O20          C27   1.263       .  A
O21          V24   1.900       .  S
O21          C26   1.265       .  A
O22          V24   1.898       .  S
O22          C25   1.264       .  A
V23          V24   2.085       .  T
C25         C976   1.488       .  S
C26         C961   1.487       .  S
C27         C949   1.474       .  S
C28         C937   1.480       .  S
O29          V37   1.896       .  S
O29          C39   1.263       .  A
O30          V37   1.893       .  S
O30          C40   1.262       .  A
O31          V37   1.903       .  S
O31          C41   1.265       .  A
O32          V37   1.904       .  S
O32          C42   1.265       .  A
O33          V38   1.900       .  S
O33          C42   1.264       .  A
O34          V38   1.899       .  S
O34          C41   1.264       .  A
O35          V38   1.900       .  S
O35          C40   1.266       .  A
O36          V38   1.899       .  S
O36          C39   1.266       .  A
V37          V38   2.081       .  T
C39         C913   1.489       .  S
C40         C925   1.488       .  S
C41         C901   1.478       .  S
C42         C892   1.478       .  S
C43         C856   1.490       .  S
C43          N44   1.359       .  A
C43          N48   1.358       .  A
N44          C45   1.358       .  A
C45         C865   1.475       .  S
C45          N46   1.358       .  A
N46          C47   1.358       .  A
C47         C877   1.477       .  S
C47          N48   1.358       .  A
C49         C841   1.476       .  S
C49          N50   1.358       .  A
C49          N54   1.357       .  A
N50          C51   1.361       .  A
C51         C832   1.496       .  S
C51          N52   1.358       .  A
N52          C53   1.358       .  A
C53         C880   1.478       .  S
C53          N54   1.357       .  A
O55          V63   1.905       .  S
O55          C65   1.267       .  A
O56          V63   1.907       .  S
O56          C66   1.266       .  A
O57          V63   1.899       .  S
O57          C67   1.265       .  A
O58          V63   1.899       .  S
O58          C68   1.264       .  A
O59          V64   1.901       .  S
O59          C68   1.264       .  A
O60          V64   1.898       .  S
O60          C67   1.264       .  A
O61          V64   1.892       .  S
O61          C66   1.264       .  A
O62          V64   1.893       .  S
O62          C65   1.262       .  A
V63          V64   2.085       .  T
C65         C793   1.489       .  S
C66         C820   1.488       .  S
C67         C844   1.486       .  S
C68         C805   1.473       .  S
C69         C889   1.492       .  S
C69          N70   1.362       .  A
C69          N74   1.360       .  A
N70          C71   1.360       .  A
C71         C769   1.488       .  S
C71          N72   1.357       .  A
N72          C73   1.357       .  A
C73         C781   1.480       .  S
C73          N74   1.358       .  A
C75         C757   1.468       .  S
C75          N76   1.356       .  A
C75          N80   1.357       .  A
N76          C77   1.358       .  A
C77         C784   1.480       .  S
C77          N78   1.360       .  A
N78          C79   1.358       .  A
C79         C817   1.481       .  S
C79          N80   1.358       .  A
O81          V89   1.896       .  S
O81          C91   1.263       .  A
O82          V89   1.901       .  S
O82          C92   1.265       .  A
O83          V89   1.901       .  S
O83          C93   1.264       .  A
O84          V89   1.902       .  S
O84          C94   1.266       .  A
O85          V90   1.899       .  S
O85          C94   1.264       .  A
O86          V90   1.900       .  S
O86          C93   1.263       .  A
O87          V90   1.892       .  S
O87          C92   1.263       .  A
O88          V90   1.896       .  S
O88          C91   1.264       .  A
V89          V90   2.085       .  T
C91         C760   1.473       .  S
C92         C733   1.477       .  S
C93         C745   1.472       .  S
C94         C721   1.495       .  S
C95         C952   1.491       .  S
C95          N96   1.360       .  A
C95         N100   1.355       .  A
N96          C97   1.360       .  A
C97         C709   1.490       .  S
C97          N98   1.360       .  A
N98          C99   1.359       .  A
C99         C916   1.486       .  S
C99         N100   1.356       .  A
C101        C700   1.491       .  S
C101        N102   1.362       .  A
C101        N106   1.357       .  A
N102        C103   1.362       .  A
C103        C712   1.485       .  S
C103        N104   1.359       .  A
N104        C105   1.357       .  A
C105        C748   1.479       .  S
C105        N106   1.355       .  A
C107        C973   1.478       .  S
C107        N108   1.357       .  A
C107        N112   1.360       .  A
N108        C109   1.354       .  A
C109        C673   1.489       .  S
C109        N110   1.356       .  A
N110        C111   1.355       .  A
C111        C685   1.477       .  S
C111        N112   1.360       .  A
C113        C664   1.484       .  S
C113        N114   1.355       .  A
C113        N118   1.360       .  A
N114        C115   1.354       .  A
C115        C688   1.476       .  S
C115        N116   1.357       .  A
N116        C117   1.359       .  A
C117        C649   1.490       .  S
C117        N118   1.362       .  A
O119        V127   1.901       .  S
O119        C129   1.266       .  A
O120        V127   1.898       .  S
O120        C130   1.266       .  A
O121        V127   1.901       .  S
O121        C131   1.266       .  A
O122        V127   1.900       .  S
O122        C132   1.264       .  A
O123        V128   1.900       .  S
O123        C132   1.264       .  A
O124        V128   1.901       .  S
O124        C131   1.265       .  A
O125        V128   1.901       .  S
O125        C130   1.264       .  A
O126        V128   1.899       .  S
O126        C129   1.264       .  A
V127        V128   2.081       .  T
C129        C697   1.492       .  S
C130        C637   1.490       .  S
C131        C625   1.489       .  S
C132        C661   1.472       .  S
O133        V141   1.904       .  S
O133        C143   1.266       .  A
O134        V141   1.904       .  S
O134        C144   1.265       .  A
O135        V141   1.902       .  S
O135        C145   1.265       .  A
O136        V141   1.902       .  S
O136        C146   1.265       .  A
O137        V142   1.898       .  S
O137        C146   1.264       .  A
O138        V142   1.896       .  S
O138        C145   1.263       .  A
O139        V142   1.893       .  S
O139        C144   1.263       .  A
O140        V142   1.893       .  S
O140        C143   1.263       .  A
V141        V142   2.087       .  T
C143        C613   1.482       .  S
C144        C652   1.475       .  S
C145        C601   1.474       .  S
C146        C829   1.479       .  S
C147       C1012   1.488       .  S
C147        N148   1.356       .  A
C147        N152   1.359       .  A
N148        C149   1.359       .  A
C149        C589   1.481       .  S
C149        N150   1.360       .  A
N150        C151   1.361       .  A
C151        C628   1.483       .  S
C151        N152   1.358       .  A
C153        C577   1.483       .  S
C153        N154   1.357       .  A
C153        N158   1.357       .  A
N154        C155   1.358       .  A
C155        C592   1.482       .  S
C155        N156   1.359       .  A
N156        C157   1.361       .  A
C157        C808   1.487       .  S
C157        N158   1.359       .  A
O159        V167   1.899       .  S
O159        C169   1.266       .  A
O160        V167   1.894       .  S
O160        C170   1.265       .  A
O161        V167   1.893       .  S
O161        C171   1.264       .  A
O162        V167   1.892       .  S
O162        C172   1.262       .  A
O163        V168   1.903       .  S
O163        C172   1.266       .  A
O164        V168   1.909       .  S
O164        C171   1.266       .  A
O165        V168   1.904       .  S
O165        C170   1.264       .  A
O166        V168   1.900       .  S
O166        C169   1.264       .  A
V167        V168   2.083       .  T
C169        C580   1.493       .  S
C170        C541   1.488       .  S
C171        C568   1.490       .  S
C172        C553   1.483       .  S
C173        C988   1.497       .  S
C173        N174   1.360       .  A
C173        N178   1.361       .  A
N174        C175   1.360       .  A
C175        C529   1.487       .  S
C175        N176   1.359       .  A
N176        C177   1.357       .  A
C177        C964   1.481       .  S
C177        N178   1.359       .  A
C179        C565   1.480       .  S
C179        N180   1.361       .  A
C179        N184   1.358       .  A
N180        C181   1.359       .  A
C181        C517   1.501       .  S
C181        N182   1.360       .  A
N182        C183   1.358       .  A
C183        C532   1.484       .  S
C183        N184   1.358       .  A
C185        C493   1.478       .  S
C185        N186   1.358       .  A
C185        N190   1.356       .  A
N186        C187   1.361       .  A
C187        C940   1.496       .  S
C187        N188   1.361       .  A
N188        C189   1.361       .  A
C189        C505   1.488       .  S
C189        N190   1.358       .  A
C191        C472   1.488       .  S
C191        N192   1.360       .  A
C191        N196   1.358       .  A
N192        C193   1.361       .  A
C193        C508   1.490       .  S
C193        N194   1.360       .  A
N194        C195   1.360       .  A
C195        C484   1.491       .  S
C195        N196   1.359       .  A
O197        V205   1.908       .  S
O197        C207   1.266       .  A
O198        V205   1.904       .  S
O198        C208   1.265       .  A
O199        V205   1.902       .  S
O199        C209   1.264       .  A
O200        V205   1.901       .  S
O200        C210   1.265       .  A
O201        V206   1.897       .  S
O201        C210   1.265       .  A
O202        V206   1.898       .  S
O202        C209   1.266       .  A
O203        V206   1.898       .  S
O203        C208   1.263       .  A
O204        V206   1.899       .  S
O204        C207   1.264       .  A
V205        V206   2.084       .  T
C207        C481   1.480       .  S
C208        C772   1.475       .  S
C209        C520   1.489       .  S
C210        C868   1.483       .  S
C211        C445   1.486       .  S
C211        N212   1.360       .  A
C211        N216   1.359       .  A
N212        C213   1.360       .  A
C213        C457   1.484       .  S
C213        N214   1.358       .  A
N214        C215   1.358       .  A
C215        C640   1.493       .  S
C215        N216   1.357       .  A
C217        C436   1.486       .  S
C217        N218   1.358       .  A
C217        N222   1.360       .  A
N218        C219   1.358       .  A
C219        C460   1.480       .  S
C219        N220   1.357       .  A
N220        C221   1.357       .  A
C221        C796   1.480       .  S
C221        N222   1.359       .  A
C223       C1000   1.489       .  S
C223        N224   1.356       .  A
C223        N228   1.359       .  A
N224        C225   1.357       .  A
C225        C736   1.471       .  S
C225        N226   1.359       .  A
N226        C227   1.359       .  A
C227        C421   1.480       .  S
C227        N228   1.360       .  A
C229        C412   1.475       .  S
C229        N230   1.356       .  A
C229        N234   1.357       .  A
N230        C231   1.358       .  A
C231        C424   1.481       .  S
C231        N232   1.360       .  A
N232        C233   1.360       .  A
C233        C604   1.487       .  S
C233        N234   1.358       .  A
O235        V243   1.901       .  S
O235        C245   1.265       .  A
O236        V243   1.899       .  S
O236        C246   1.265       .  A
O237        V243   1.896       .  S
O237        C247   1.263       .  A
O238        V243   1.900       .  S
O238        C248   1.264       .  A
O239        V244   1.902       .  S
O239        C248   1.265       .  A
O240        V244   1.900       .  S
O240        C247   1.264       .  A
O241        V244   1.902       .  S
O241        C246   1.265       .  A
O242        V244   1.898       .  S
O242        C245   1.264       .  A
V243        V244   2.086       .  T
C245        C409   1.484       .  S
C246        C496   1.487       .  S
C247        C397   1.471       .  S
C248        C448   1.475       .  S
C249       C1024   1.475       .  S
C249        N250   1.358       .  A
C249        N254   1.357       .  A
N250        C251   1.359       .  A
C251        C385   1.478       .  S
C251        N252   1.359       .  A
N252        C253   1.359       .  A
C253        C904   1.492       .  S
C253        N254   1.356       .  A
C255        C400   1.488       .  S
C255        N256   1.357       .  A
C255        N260   1.360       .  A
N256        C257   1.355       .  A
C257        C388   1.475       .  S
C257        N258   1.357       .  A
N258        C259   1.357       .  A
C259        C373   1.497       .  S
C259        N260   1.361       .  A
O261        V269   1.896       .  S
O261        C271   1.263       .  A
O262        V269   1.894       .  S
O262        C272   1.263       .  A
O263        V269   1.902       .  S
O263        C273   1.264       .  A
O264        V269   1.898       .  S
O264        C274   1.265       .  A
O265        V270   1.899       .  S
O265        C274   1.264       .  A
O266        V270   1.899       .  S
O266        C273   1.264       .  A
O267        V270   1.894       .  S
O267        C272   1.263       .  A
O268        V270   1.891       .  S
O268        C271   1.263       .  A
V269        V270   2.087       .  T
C271        C364   1.471       .  S
C272        C676   1.472       .  S
C273        C853   1.477       .  S
C274        C376   1.480       .  S
C275        C544   1.475       .  S
C275        N276   1.356       .  A
C275        N280   1.357       .  A
N276        C277   1.356       .  A
C277        C928   1.486       .  S
C277        N278   1.356       .  A
N278        C279   1.358       .  A
C279        C349   1.478       .  S
C279        N280   1.360       .  A
C281        C361   1.490       .  S
C281        N282   1.360       .  A
C281        N286   1.360       .  A
N282        C283   1.359       .  A
C283        C340   1.483       .  S
C283        N284   1.354       .  A
N284        C285   1.354       .  A
C285        C352   1.477       .  S
C285        N286   1.356       .  A
C287        C556   1.495       .  S
C287        N288   1.362       .  A
C287        N292   1.354       .  A
N288        C289   1.362       .  A
C289        C724   1.490       .  S
C289        N290   1.360       .  A
N290        C291   1.358       .  A
C291        C325   1.476       .  S
C291        N292   1.354       .  A
C293        C316   1.492       .  S
C293        N294   1.361       .  A
C293        N298   1.360       .  A
N294        C295   1.359       .  A
C295        C616   1.475       .  S
C295        N296   1.357       .  A
N296        C297   1.358       .  A
C297        C328   1.480       .  S
C297        N298   1.360       .  A
O299        V307   1.901       .  S
O299        C309   1.264       .  A
O300        V307   1.899       .  S
O300        C310   1.264       .  A
O301        V307   1.905       .  S
O301        C311   1.265       .  A
O302        V307   1.906       .  S
O302        C312   1.267       .  A
O303        V308   1.903       .  S
O303        C312   1.265       .  A
O304        V308   1.902       .  S
O304        C311   1.267       .  A
O305        V308   1.895       .  S
O305        C310   1.263       .  A
O306        V308   1.895       .  S
O306        C309   1.263       .  A
V307        V308   2.081       .  T
C309        C433   1.471       .  S
C310        C337   1.469       .  S
C311        C469   1.497       .  S
C312        C313   1.498       .  S
C313        C314   1.408       .  A
C313        C318   1.420       .  A
C314        C315   1.402       .  A
C314        H323   1.084       .  S
C315        C316   1.417       .  A
C315        S319   1.803       .  S
C316        C317   1.405       .  A
C317        C318   1.402       .  A
C317        H324   1.084       .  S
C318        S320   1.801       .  S
S319        H322   1.407       .  S
S320        H321   1.408       .  S
C325        C326   1.402       .  A
C325        C330   1.415       .  A
C326        C327   1.399       .  A
C326        H335   1.085       .  S
C327        C328   1.415   1_655  A
C327        S331   1.800   1_655  S
C328        C329   1.403   1_455  A
C329        C330   1.398       .  A
C329        H336   1.085   1_655  S
C330        S332   1.804       .  S
S331        H334   1.407       .  S
S332        H333   1.407       .  S
C337        C338   1.399       .  A
C337        C342   1.410       .  A
C338        C339   1.397       .  A
C338        H347   1.084       .  S
C339        C340   1.419       .  A
C339        S343   1.804       .  S
C340        C341   1.407       .  A
C341        C342   1.399       .  A
C341        H348   1.082       .  S
C342        S344   1.804       .  S
S343        H346   1.408       .  S
S344        H345   1.407       .  S
C349        C350   1.405       .  A
C349        C354   1.414       .  A
C350        C351   1.398   1_655  A
C350        H359   1.084       .  S
C351        C352   1.414       .  A
C351        S355   1.803       .  S
C352        C353   1.404       .  A
C353        C354   1.397   1_455  A
C353        H360   1.084       .  S
C354        S356   1.803       .  S
S355        H358   1.407       .  S
S356        H357   1.407       .  S
C361        C362   1.410       .  A
C361        C366   1.420       .  A
C362        C363   1.397       .  A
C362        H371   1.083       .  S
C363        C364   1.409       .  A
C363        S367   1.801       .  S
C364        C365   1.400       .  A
C365        C366   1.396       .  A
C365        H372   1.084       .  S
C366        S368   1.801       .  S
S367        H370   1.407       .  S
S368        H369   1.408       .  S
C373        C374   1.411       .  A
C373        C378   1.423       .  A
C374        C375   1.399       .  A
C374        H383   1.083       .  S
C375        C376   1.411       .  A
C375        S379   1.804       .  S
C376        C377   1.402       .  A
C377        C378   1.400       .  A
C377        H384   1.084       .  S
C378        S380   1.801       .  S
S379        H382   1.408       .  S
S380        H381   1.408       .  S
C385        C386   1.404       .  A
C385        C390   1.414       .  A
C386        C387   1.400       .  A
C386        H395   1.084       .  S
C387        C388   1.414   1_655  A
C387        S391   1.803   1_655  S
C388        C389   1.402   1_455  A
C389        C390   1.398       .  A
C389        H396   1.084   1_655  S
C390        S392   1.804       .  S
S391        H394   1.407       .  S
S392        H393   1.407       .  S
C397        C398   1.400       .  A
C397        C402   1.410       .  A
C398        C399   1.398       .  A
C398        H407   1.084       .  S
C399        C400   1.420       .  A
C399        S403   1.803       .  S
C400        C401   1.409       .  A
C401        C402   1.400       .  A
C401        H408   1.083       .  S
C402        S404   1.804       .  S
S403        H406   1.408       .  S
S404        H405   1.407       .  S
C409        C410   1.406       .  A
C409        C414   1.417       .  A
C410        C411   1.400       .  A
C410        H419   1.083       .  S
C411        C412   1.412       .  A
C411        S415   1.803       .  S
C412        C413   1.402       .  A
C413        C414   1.399       .  A
C413        H420   1.084       .  S
C414        S416   1.803       .  S
S415        H418   1.407       .  S
S416        H417   1.408       .  S
C421        C422   1.403       .  A
C421        C426   1.414       .  A
C422        C423   1.396       .  A
C422        H431   1.084       .  S
C423        C424   1.415   1_655  A
C423        S427   1.804   1_655  S
C424        C425   1.405   1_455  A
C425        C426   1.402       .  A
C425        H432   1.084   1_655  S
C426        S428   1.802       .  S
S427        H430   1.407       .  S
S428        H429   1.407       .  S
C433        C434   1.400       .  A
C433        C438   1.410       .  A
C434        C435   1.400       .  A
C434        H443   1.084       .  S
C435        C436   1.420       .  A
C435        S439   1.803       .  S
C436        C437   1.407       .  A
C437        C438   1.398       .  A
C437        H444   1.084       .  S
C438        S440   1.804       .  S
S439        H442   1.407       .  S
S440        H441   1.407       .  S
C445        C446   1.406       .  A
C445        C450   1.417       .  A
C446        C447   1.401       .  A
C446        H455   1.084       .  S
C447        C448   1.412       .  A
C447        S451   1.804       .  S
C448        C449   1.401       .  A
C449        C450   1.400       .  A
C449        H456   1.085       .  S
C450        S452   1.803       .  S
S451        H454   1.406       .  S
S452        H453   1.407       .  S
C457        C458   1.406       .  A
C457        C462   1.415       .  A
C458        C459   1.397       .  A
C458        H467   1.084       .  S
C459        C460   1.415   1_556  A
C459        S463   1.803   1_556  S
C460        C461   1.405   1_554  A
C461        C462   1.400       .  A
C461        H468   1.084   1_556  S
C462        S464   1.803       .  S
S463        H466   1.407       .  S
S464        H465   1.407       .  S
C469        C470   1.408       .  A
C469        C474   1.421       .  A
C470        C471   1.400       .  A
C470        H479   1.083       .  S
C471        C472   1.415       .  A
C471        S475   1.803       .  S
C472        C473   1.404       .  A
C473        C474   1.403       .  A
C473        H480   1.084       .  S
C474        S476   1.800       .  S
S475        H478   1.407       .  S
S476        H477   1.408       .  S
C481        C482   1.403       .  A
C481        C486   1.411       .  A
C482        C483   1.401       .  A
C482        H491   1.084       .  S
C483        C484   1.419       .  A
C483        S487   1.803       .  S
C484        C485   1.408       .  A
C485        C486   1.401       .  A
C485        H492   1.083       .  S
C486        S488   1.800       .  S
S487        H490   1.407       .  S
S488        H489   1.407       .  S
C493        C494   1.402       .  A
C493        C498   1.413       .  A
C494        C495   1.400       .  A
C494        H503   1.084       .  S
C495        C496   1.417       .  A
C495        S499   1.802       .  S
C496        C497   1.407       .  A
C497        C498   1.401       .  A
C497        H504   1.083       .  S
C498        S500   1.803       .  S
S499        H502   1.408       .  S
S500        H501   1.407       .  S
C505        C506   1.405       .  A
C505        C510   1.417       .  A
C506        C507   1.403       .  A
C506        H515   1.083       .  S
C507        C508   1.417   1_556  A
C507        S511   1.803   1_556  S
C508        C509   1.405   1_554  A
C509        C510   1.399       .  A
C509        H516   1.083   1_556  S
C510        S512   1.803       .  S
S511        H514   1.407       .  S
S512        H513   1.407       .  S
C517        C518   1.410       .  A
C517        C522   1.421       .  A
C518        C519   1.400       .  A
C518        H527   1.083       .  S
C519        C520   1.416       .  A
C519        S523   1.802       .  S
C520        C521   1.405       .  A
C521        C522   1.400       .  A
C521        H528   1.084       .  S
C522        S524   1.799       .  S
S523        H526   1.402       .  S
S524        H525   1.407       .  S
C529        C530   1.405       .  A
C529        C534   1.416       .  A
C530        C531   1.398       .  A
C530        H539   1.084       .  S
C531        C532   1.416   1_556  A
C531        S535   1.804   1_556  S
C532        C533   1.405   1_554  A
C533        C534   1.402       .  A
C533        H540   1.084   1_556  S
C534        S536   1.802       .  S
S535        H538   1.407       .  S
S536        H537   1.407       .  S
C541        C542   1.406       .  A
C541        C546   1.420       .  A
C542        C543   1.394       .  A
C542        H551   1.084       .  S
C543        C544   1.411       .  A
C543        S547   1.804       .  S
C544        C545   1.402       .  A
C545        C546   1.402       .  A
C545        H552   1.085       .  S
C546        S548   1.799       .  S
S547        H550   1.407       .  S
S548        H549   1.402       .  S
C553        C554   1.402       .  A
C553        C558   1.414       .  A
C554        C555   1.403       .  A
C554        H563   1.082       .  S
C555        C556   1.424       .  A
C555        S559   1.811       .  S
C556        C557   1.408       .  A
C557        C558   1.398       .  A
C557        H564   1.083       .  S
C558        S560   1.803       .  S
S559        H562   1.407       .  S
S560        H561   1.408       .  S
C565        C566   1.404       .  A
C565        C570   1.412       .  A
C566        C567   1.403       .  A
C566        H575   1.084       .  S
C567        C568   1.418       .  A
C567        S571   1.799       .  S
C568        C569   1.407       .  A
C569        C570   1.397       .  A
C569        H576   1.084       .  S
C570        S572   1.803       .  S
S571        H574   1.402       .  S
S572        H573   1.407       .  S
C577        C578   1.403       .  A
C577        C582   1.414       .  A
C578        C579   1.400       .  A
C578        H587   1.084       .  S
C579        C580   1.420       .  A
C579        S583   1.800       .  S
C580        C581   1.408       .  A
C581        C582   1.400       .  A
C581        H588   1.084       .  S
C582        S584   1.803       .  S
S583        H586   1.407       .  S
S584        H585   1.407       .  S
C589        C590   1.403       .  A
C589        C594   1.414       .  A
C590        C591   1.395       .  A
C590        H599   1.081       .  S
C591        C592   1.414   1_556  A
C591        S595   1.804   1_556  S
C592        C593   1.406   1_554  A
C593        C594   1.404       .  A
C593        H600   1.083   1_556  S
C594        S596   1.803       .  S
S595        H598   1.407       .  S
S596        H597   1.407       .  S
C601        C602   1.401       .  A
C601        C606   1.411       .  A
C602        C603   1.399       .  A
C602        H611   1.084       .  S
C603        C604   1.418       .  A
C603        S607   1.803       .  S
C604        C605   1.407       .  A
C605        C606   1.400       .  A
C605        H612   1.083       .  S
C606        S608   1.804       .  S
S607        H610   1.408       .  S
S608        H609   1.406       .  S
C613        C614   1.405       .  A
C613        C618   1.416       .  A
C614        C615   1.401       .  A
C614        H623   1.084       .  S
C615        C616   1.413       .  A
C615        S619   1.802       .  S
C616        C617   1.401       .  A
C617        C618   1.398       .  A
C617        H624   1.084       .  S
C618        S620   1.803       .  S
S619        H622   1.406       .  S
S620        H621   1.408       .  S
C625        C626   1.405       .  A
C625        C630   1.418       .  A
C626        C627   1.399       .  A
C626        H635   1.084       .  S
C627        C628   1.416       .  A
C627        S631   1.804       .  S
C628        C629   1.404       .  A
C629        C630   1.402       .  A
C629        H636   1.084       .  S
C630        S632   1.802       .  S
S631        H634   1.407       .  S
S632        H633   1.408       .  S
C637        C638   1.406       .  A
C637        C642   1.416       .  A
C638        C639   1.404       .  A
C638        H647   1.081       .  S
C639        C640   1.419       .  A
C639        S643   1.810       .  S
C640        C641   1.407       .  A
C641        C642   1.398       .  A
C641        H648   1.084       .  S
C642        S644   1.802       .  S
S643        H646   1.406       .  S
S644        H645   1.408       .  S
C649        C650   1.410       .  A
C649        C654   1.417       .  A
C650        C651   1.400       .  A
C650        H659   1.083       .  S
C651        C652   1.410       .  A
C651        S655   1.803       .  S
C652        C653   1.403       .  A
C653        C654   1.399       .  A
C653        H660   1.084       .  S
C654        S656   1.803       .  S
S655        H658   1.406       .  S
S656        H657   1.408       .  S
C661        C662   1.400       .  A
C661        C666   1.412       .  A
C662        C663   1.398       .  A
C662        H671   1.085       .  S
C663        C664   1.419       .  A
C663        S667   1.804       .  S
C664        C665   1.406       .  A
C665        C666   1.401       .  A
C665        H672   1.083       .  S
C666        S668   1.804       .  S
S667        H670   1.408       .  S
S668        H669   1.406       .  S
C673        C674   1.409       .  A
C673        C678   1.421       .  A
C674        C675   1.394       .  A
C674        H683   1.082       .  S
C675        C676   1.410       .  A
C675        S679   1.803       .  S
C676        C677   1.402       .  A
C677        C678   1.398       .  A
C677        H684   1.085       .  S
C678        S680   1.803       .  S
S679        H682   1.406       .  S
S680        H681   1.408       .  S
C685        C686   1.403       .  A
C685        C690   1.417       .  A
C686        C687   1.400   1_565  A
C686        H695   1.084       .  S
C687        C688   1.414       .  A
C687        S691   1.803       .  S
C688        C689   1.402       .  A
C689        C690   1.395   1_545  A
C689        H696   1.084       .  S
C690        S692   1.805       .  S
S691        H694   1.407       .  S
S692        H693   1.407       .  S
C697        C698   1.405       .  A
C697        C702   1.419       .  A
C698        C699   1.399       .  A
C698        H707   1.084       .  S
C699        C700   1.419       .  A
C699        S703   1.804       .  S
C700        C701   1.405       .  A
C701        C702   1.401       .  A
C701        H708   1.084       .  S
C702        S704   1.801       .  S
S703        H706   1.408       .  S
S704        H705   1.408       .  S
C709        C710   1.408       .  A
C709        C714   1.418       .  A
C710        C711   1.401   1_565  A
C710        H719   1.084       .  S
C711        C712   1.414       .  A
C711        S715   1.803       .  S
C712        C713   1.405       .  A
C713        C714   1.399   1_545  A
C713        H720   1.084       .  S
C714        S716   1.803       .  S
S715        H718   1.407       .  S
S716        H717   1.408       .  S
C721        C722   1.408       .  A
C721        C726   1.419       .  A
C722        C723   1.405       .  A
C722        H731   1.082       .  S
C723        C724   1.415       .  A
C723        S727   1.809       .  S
C724        C725   1.404       .  A
C725        C726   1.399       .  A
C725        H732   1.084       .  S
C726        S728   1.801       .  S
S727        H730   1.407       .  S
S728        H729   1.408       .  S
C733        C734   1.405       .  A
C733        C738   1.415       .  A
C734        C735   1.400       .  A
C734        H743   1.084       .  S
C735        C736   1.411       .  A
C735        S739   1.802       .  S
C736        C737   1.401       .  A
C737        C738   1.396       .  A
C737        H744   1.084       .  S
C738        S740   1.804       .  S
S739        H742   1.406       .  S
S740        H741   1.408       .  S
C745        C746   1.402       .  A
C745        C750   1.411       .  A
C746        C747   1.401       .  A
C746        H755   1.083       .  S
C747        C748   1.416       .  A
C747        S751   1.803       .  S
C748        C749   1.404       .  A
C749        C750   1.398       .  A
C749        H756   1.083       .  S
C750        S752   1.802       .  S
S751        H754   1.407       .  S
S752        H753   1.404       .  S
C757        C758   1.401       .  A
C757        C762   1.407       .  A
C758        C759   1.400       .  A
C758        H767   1.085       .  S
C759        C760   1.414       .  A
C759        S763   1.803       .  S
C760        C761   1.403       .  A
C761        C762   1.399       .  A
C761        H768   1.084       .  S
C762        S764   1.805       .  S
S763        H766   1.407       .  S
S764        H765   1.407       .  S
C769        C770   1.409       .  A
C769        C774   1.416       .  A
C770        C771   1.400       .  A
C770        H779   1.083       .  S
C771        C772   1.410       .  A
C771        S775   1.804       .  S
C772        C773   1.403       .  A
C773        C774   1.401       .  A
C773        H780   1.083       .  S
C774        S776   1.802       .  S
S775        H778   1.407       .  S
S776        H777   1.407       .  S
C781        C782   1.404       .  A
C781        C786   1.414       .  A
C782        C783   1.396   1_565  A
C782        H791   1.083       .  S
C783        C784   1.413       .  A
C783        S787   1.804       .  S
C784        C785   1.406       .  A
C785        C786   1.402   1_545  A
C785        H792   1.083       .  S
C786        S788   1.803       .  S
S787        H790   1.408       .  S
S788        H789   1.407       .  S
C793        C794   1.407       .  A
C793        C798   1.420       .  A
C794        C795   1.400       .  A
C794        H803   1.083       .  S
C795        C796   1.413       .  A
C795        S799   1.803       .  S
C796        C797   1.402       .  A
C797        C798   1.399       .  A
C797        H804   1.083       .  S
C798        S800   1.802       .  S
S799        H802   1.407       .  S
S800        H801   1.408       .  S
C805        C806   1.401       .  A
C805        C810   1.411       .  A
C806        C807   1.400       .  A
C806        H815   1.084       .  S
C807        C808   1.419       .  A
C807        S811   1.803       .  S
C808        C809   1.407       .  A
C809        C810   1.399       .  A
C809        H816   1.084       .  S
C810        S812   1.803       .  S
S811        H814   1.408       .  S
S812        H813   1.406       .  S
C817        C818   1.404       .  A
C817        C822   1.412       .  A
C818        C819   1.402       .  A
C818        H827   1.084       .  S
C819        C820   1.417       .  A
C819        S823   1.801       .  S
C820        C821   1.407       .  A
C821        C822   1.397       .  A
C821        H828   1.084       .  S
C822        S824   1.802       .  S
S823        H826   1.408       .  S
S824        H825   1.407       .  S
C829        C830   1.401       .  A
C829        C834   1.411       .  A
C830        C831   1.401       .  A
C830        H839   1.085       .  S
C831        C832   1.423       .  A
C831        S835   1.802       .  S
C832        C833   1.409       .  A
C833        C834   1.398       .  A
C833        H840   1.084       .  S
C834        S836   1.804       .  S
S835        H838   1.408       .  S
S836        H837   1.407       .  S
C841        C842   1.401       .  A
C841        C846   1.412       .  A
C842        C843   1.398       .  A
C842        H851   1.084       .  S
C843        C844   1.418       .  A
C843        S847   1.802       .  S
C844        C845   1.407       .  A
C845        C846   1.400       .  A
C845        H852   1.084       .  S
C846        S848   1.804       .  S
S847        H850   1.408       .  S
S848        H849   1.407       .  S
C853        C854   1.401       .  A
C853        C858   1.411       .  A
C854        C855   1.400       .  A
C854        H863   1.083       .  S
C855        C856   1.420       .  A
C855        S859   1.803       .  S
C856        C857   1.407       .  A
C857        C858   1.399       .  A
C857        H864   1.084       .  S
C858        S860   1.802       .  S
S859        H862   1.408       .  S
S860        H861   1.406       .  S
C865        C866   1.403       .  A
C865        C870   1.412       .  A
C866        C867   1.402       .  A
C866        H875   1.084       .  S
C867        C868   1.417       .  A
C867        S871   1.803       .  S
C868        C869   1.405       .  A
C869        C870   1.397       .  A
C869        H876   1.084       .  S
C870        S872   1.804       .  S
S871        H874   1.408       .  S
S872        H873   1.407       .  S
C877        C878   1.403       .  A
C877        C882   1.413       .  A
C878        C879   1.398   1_565  A
C878        H887   1.084       .  S
C879        C880   1.415       .  A
C879        S883   1.804       .  S
C880        C881   1.404       .  A
C881        C882   1.400   1_545  A
C881        H888   1.084       .  S
C882        S884   1.803       .  S
S883        H886   1.407       .  S
S884        H885   1.407       .  S
C889        C890   1.408       .  A
C889        C894   1.420       .  A
C890        C891   1.401       .  A
C890        H899   1.083       .  S
C891        C892   1.411       .  A
C891        S895   1.803       .  S
C892        C893   1.401       .  A
C893        C894   1.401       .  A
C893        H900   1.084       .  S
C894        S896   1.803       .  S
S895        H898   1.407       .  S
S896        H897   1.408       .  S
C901        C902   1.401       .  A
C901        C906   1.412       .  A
C902        C903   1.400       .  A
C902        H911   1.084       .  S
C903        C904   1.421       .  A
C903        S907   1.803       .  S
C904        C905   1.408       .  A
C905        C906   1.399       .  A
C905        H912   1.083       .  S
C906        S908   1.804       .  S
S907        H910   1.408       .  S
S908        H909   1.407       .  S
C913        C914   1.407       .  A
C913        C918   1.418       .  A
C914        C915   1.399       .  A
C914        H923   1.084       .  S
C915        C916   1.414       .  A
C915        S919   1.802       .  S
C916        C917   1.405       .  A
C917        C918   1.398       .  A
C917        H924   1.084       .  S
C918        S920   1.802       .  S
S919        H922   1.407       .  S
S920        H921   1.408       .  S
C925        C926   1.407       .  A
C925        C930   1.417       .  A
C926        C927   1.404       .  A
C926        H935   1.082       .  S
C927        C928   1.415       .  A
C927        S931   1.810       .  S
C928        C929   1.405       .  A
C929        C930   1.395       .  A
C929        H936   1.083       .  S
C930        S932   1.802       .  S
S931        H934   1.406       .  S
S932        H933   1.407       .  S
C937        C938   1.402       .  A
C937        C942   1.412       .  A
C938        C939   1.402       .  A
C938        H947   1.083       .  S
C939        C940   1.421       .  A
C939        S943   1.802       .  S
C940        C941   1.410       .  A
C941        C942   1.400       .  A
C941        H948   1.083       .  S
C942        S944   1.804       .  S
S943        H946   1.408       .  S
S944        H945   1.407       .  S
C949        C950   1.401       .  A
C949        C954   1.410       .  A
C950        C951   1.399       .  A
C950        H959   1.084       .  S
C951        C952   1.422       .  A
C951        S955   1.803       .  S
C952        C953   1.408       .  A
C953        C954   1.397       .  A
C953        H960   1.083       .  S
C954        S956   1.803       .  S
S955        H958   1.408       .  S
S956        H957   1.407       .  S
C961        C962   1.406       .  A
C961        C966   1.417       .  A
C962        C963   1.400       .  A
C962        H971   1.083       .  S
C963        C964   1.413       .  A
C963        S967   1.803       .  S
C964        C965   1.403       .  A
C965        C966   1.401       .  A
C965        H972   1.083       .  S
C966        S968   1.803       .  S
S967        H970   1.407       .  S
S968        H969   1.408       .  S
C973        C974   1.403       .  A
C973        C978   1.412       .  A
C974        C975   1.397       .  A
C974        H983   1.084       .  S
C975        C976   1.418       .  A
C975        S979   1.802       .  S
C976        C977   1.409       .  A
C977        C978   1.401       .  A
C977        H984   1.083       .  S
C978        S980   1.803       .  S
S979        H982   1.408       .  S
S980        H981   1.407       .  S
C985        C986   1.402       .  A
C985        C990   1.412       .  A
C986        C987   1.403       .  A
C986        H995   1.084       .  S
C987        C988   1.422       .  A
C987        S991   1.802       .  S
C988        C989   1.409       .  A
C989        C990   1.400       .  A
C989        H996   1.083       .  S
C990        S992   1.804       .  S
S991        H994   1.408       .  S
S992        H993   1.407       .  S
C997        C998   1.402       .  A
C997       C1002   1.411       .  A
C998        C999   1.400       .  A
C998       H1007   1.083       .  S
C999       C1000   1.420       .  A
C999       S1003   1.803       .  S
C1000      C1001   1.407       .  A
C1001      C1002   1.398       .  A
C1001      H1008   1.084       .  S
C1002      S1004   1.803       .  S
S1003      H1006   1.408       .  S
S1004      H1005   1.407       .  S
C1009      C1010   1.399       .  A
C1009      C1014   1.410       .  A
C1010      C1011   1.401       .  A
C1010      H1019   1.083       .  S
C1011      C1012   1.421       .  A
C1011      S1015   1.800       .  S
C1012      C1013   1.406       .  A
C1013      C1014   1.397       .  A
C1013      H1020   1.083       .  S
C1014      S1016   1.801       .  S
S1015      H1018   1.408       .  S
S1016      H1017   1.406       .  S
C1021      C1022   1.407       .  A
C1021      C1026   1.417       .  A
C1022      C1023   1.400       .  A
C1022      H1031   1.083       .  S
C1023      C1024   1.412       .  A
C1023      S1027   1.803       .  S
C1024      C1025   1.401       .  A
C1025      C1026   1.396       .  A
C1025      H1032   1.084       .  S
C1026      S1028   1.803       .  S
S1027      H1030   1.406       .  S
S1028      H1029   1.408       .  S
