geometry optimzed in LAMMPS
_audit_creation_date              2020-12-01 
_audit_creation_method            'lammps2cif' 
_symmetry_space_group_name_H-M    'P1' 
_symmetry_Int_Tables_number       1 
_symmetry_cell_setting            triclinic 
loop_ 
_symmetry_equiv_pos_as_xyz 
  x,y,z 
_cell_length_a                    109.97921134 
_cell_length_b                    110.42440418259027 
_cell_length_c                    28.640941361388805 
_cell_angle_alpha                 89.5162895758961 
_cell_angle_beta                  90.36653988186762 
_cell_angle_gamma                 119.96283548135523 
loop_ 
_atom_site_label 
_atom_site_type_symbol 
_atom_site_fract_x 
_atom_site_fract_y 
_atom_site_fract_z 
_atom_site_charge 
O1          O  0.25059191  0.90672547  0.52221656    -0.57700
C2          C  0.24691694  0.89717961  0.66553339     0.74900
O3          O  0.24480959  0.86511310  0.57406057    -0.58900
C4          C  0.25285075  0.90198682  0.48506846     0.74900
C5          C  0.28387203  0.90114514  0.58860338     0.77300
Cd6        Cd  0.25430753  0.89087409  0.57525928     1.37500
O7          O  0.24867436  0.90498536  0.63053507    -0.57700
O8          O  0.27866321  0.90896940  0.58253133    -0.56500
C9          C  0.23258783  0.86229349  0.56156849     0.77200
O10         O  0.27540729  0.88811234  0.58617397    -0.58900
O11         O  0.24813574  0.88658398  0.65796166    -0.57300
O12         O  0.25591465  0.89241948  0.49009355    -0.57300
O13         O  0.23069844  0.87260082  0.55529455    -0.56500
O14         O  0.41836468  0.98552611  0.76740267    -0.57700
C15         C  0.42421230  0.98139413  0.62550511     0.74900
O16         O  0.42525729  0.95102914  0.70963777    -0.58900
C17         C  0.41609926  0.97836852  0.80451692     0.74900
C18         C  0.38541705  0.94911264  0.68839137     0.77300
Cd19       Cd  0.41463580  0.96659387  0.71301234     1.37500
O20         O  0.42226879  0.98724816  0.66037608    -0.57700
O21         O  0.39206235  0.96226627  0.68418923    -0.56500
C22         C  0.43718303  0.96071046  0.72329963     0.77200
O23         O  0.39204096  0.94364754  0.70717652    -0.58900
O24         O  0.42204666  0.96913293  0.63206107    -0.57300
O25         O  0.41244607  0.96561374  0.79920075    -0.57300
O26         O  0.43813623  0.97234267  0.73220019    -0.56500
O27         O  0.43908527  0.01718660  0.26734646    -0.57700
C28         C  0.44025770  0.02411341  0.12181353     0.74900
O29         O  0.45329524  0.06003339  0.22062437    -0.58900
C30         C  0.44638981  0.02389122  0.30241666     0.74900
C31         C  0.47993835  0.04182614  0.20020441     0.77300
Cd32       Cd  0.45176991  0.03680797  0.21107484     1.37500
O33         O  0.43673866  0.01704225  0.15943299    -0.57700
O34         O  0.46905418  0.02990414  0.19756662    -0.56500
C35         C  0.44019397  0.05468551  0.22740238     0.77200
O36         O  0.47797173  0.05209747  0.20654580    -0.58900
O37         O  0.44869343  0.03712455  0.12577764    -0.57300
O38         O  0.45598876  0.03633265  0.29483882    -0.57300
O39         O  0.43284780  0.04155206  0.22369747    -0.56500
O40         O  0.34816962  0.09117605  0.44652113    -0.57700
C41         C  0.35495790  0.09847355  0.30225416     0.74900
O42         O  0.38249684  0.13195591  0.40418831    -0.58900
C43         C  0.35506794  0.09547667  0.48428689     0.74900
C44         C  0.38881148  0.09804417  0.37576511     0.77300
Cd45       Cd  0.36802286  0.10608973  0.39366254     1.37500
O46         O  0.34898779  0.09069250  0.33736872    -0.57700
O47         O  0.37653302  0.08938890  0.38944276    -0.56500
C48         C  0.37206405  0.13387958  0.40100028     0.77200
O49         O  0.39203595  0.11078223  0.37495214    -0.58900
O50         O  0.36653442  0.10942173  0.31002315    -0.57300
O51         O  0.36804795  0.10419874  0.48004632    -0.57300
O52         O  0.36020644  0.12308490  0.39489220    -0.56500
O53         O  0.23448426  0.92062297  0.12747842    -0.57700
C54         C  0.22757792  0.91703717  0.99281777     0.74900
O55         O  0.19195779  0.91301910  0.07259405    -0.58900
C56         C  0.23188605  0.92513794  0.16451282     0.74900
C57         C  0.22148142  0.95095992  0.05202169     0.77300
Cd58       Cd  0.21795337  0.92409311  0.07724694     1.37500
O59         O  0.23504664  0.92852502  0.01345462    -0.57700
O60         O  0.22891544  0.94963061  0.08332049    -0.56500
C61         C  0.18956808  0.90244300  0.09699247     0.77200
O62         O  0.21157066  0.93977209  0.03540965    -0.58900
O63         O  0.21630971  0.90847616  0.01309408    -0.57300
O64         O  0.22347304  0.92978634  0.16041395    -0.57300
O65         O  0.20017766  0.90236205  0.11374234    -0.56500
O66         O  0.31509149  0.07526130  0.83984056    -0.57700
C67         C  0.31264911  0.07947479  0.97839652     0.74900
O68         O  0.28168805  0.08484485  0.89065852    -0.58900
C69         C  0.30839777  0.07378718  0.80211108     0.74900
C70         C  0.27237597  0.04590295  0.91361051     0.77300
Cd71       Cd  0.29622316  0.07323300  0.89269147     1.37500
O72         O  0.30736319  0.08665287  0.96386388    -0.57700
O73         O  0.28192799  0.04745502  0.88573864    -0.56500
C74         C  0.29194143  0.09675699  0.88003333     0.77200
O75         O  0.27331000  0.05700952  0.92932971    -0.58900
O76         O  0.31104561  0.06962583  0.95205787    -0.57300
O77         O  0.29598587  0.07155502  0.80643923    -0.57300
O78         O  0.30367479  0.09744742  0.87458973    -0.56500
O79         O  0.67652957  0.91050336  0.09993180    -0.57700
C80         C  0.68322084  0.91141311  0.95737947     0.74900
O81         O  0.72119233  0.93866903  0.04155779    -0.58900
C82         C  0.68356081  0.91520904  0.13716663     0.74900
C83         C  0.70189796  0.89407323  0.05422159     0.77300
Cd84       Cd  0.69690963  0.91742340  0.04767135     1.37500
O85         O  0.67690503  0.91189143  0.99369371    -0.57700
O86         O  0.69017426  0.89286843  0.04374371    -0.56500
C87         C  0.71665641  0.94656969  0.02690851     0.77200
O88         O  0.71179881  0.90638802  0.06223125    -0.58900
O89         O  0.69558231  0.91361834  0.96334835    -0.57300
O90         O  0.69676644  0.92176011  0.13266483    -0.57300
O91         O  0.70345677  0.94111793  0.02470227    -0.56500
O92         O  0.76923172  0.08406437  0.96013836    -0.57700
C93         C  0.77212003  0.08001454  0.81505836     0.74900
O94         O  0.80825253  0.08678579  0.89707044    -0.58900
C95         C  0.77623201  0.08453035  0.99618848     0.74900
C96         C  0.77057826  0.04766944  0.92485192     0.77300
Cd97       Cd  0.78235717  0.07720827  0.90601756     1.37500
O98         O  0.76730552  0.08201474  0.85248713    -0.57700
O99         O  0.76352434  0.05385575  0.92477237    -0.56500
C100        C  0.81114666  0.09941131  0.90057697     0.77200
O101        O  0.78337098  0.05499695  0.91318897    -0.58900
O102        O  0.78126961  0.07633816  0.81982521    -0.57300
O103        O  0.78602730  0.08184055  0.99006524    -0.57300
O104        O  0.80085121  0.10137179  0.90601042    -0.56500
O105        O  0.75358055  0.10035301  0.45878438    -0.57700
C106        C  0.75494892  0.10727001  0.31636886     0.74900
O107        O  0.72848505  0.11858696  0.38479899    -0.58900
C108        C  0.75004297  0.10401867  0.49577011     0.74900
C109        C  0.77286146  0.14302238  0.41232442     0.77300
Cd110      Cd  0.74889354  0.11524345  0.40503946     1.37500
O111        O  0.75480840  0.10086004  0.35352557    -0.57700
O112        O  0.77363424  0.13223652  0.40353647    -0.56500
C113        C  0.71962517  0.10559343  0.38552512     0.77200
O114        O  0.76060961  0.14117556  0.41823171    -0.58900
O115        O  0.75230137  0.11710766  0.32081893    -0.57300
O116        O  0.74567923  0.11261859  0.49064223    -0.57300
O117        O  0.72423414  0.09762386  0.39812928    -0.56500
O118        O  0.59027805  0.01624145  0.16774050    -0.57700
C119        C  0.58775291  0.02121446  0.31049984     0.74900
O120        O  0.61381588  0.05880081  0.24377907    -0.58900
C121        C  0.59197269  0.02315516  0.13039050     0.74900
C122        C  0.57068294  0.04020083  0.21479034     0.77300
Cd123      Cd  0.59404118  0.03538144  0.22140351     1.37500
O124        O  0.58802206  0.01499214  0.27378711    -0.57700
O125        O  0.56948463  0.02852313  0.22556091    -0.56500
C126        C  0.62305527  0.05514602  0.24275035     0.77200
O127        O  0.58300705  0.05007599  0.20607315    -0.58900
O128        O  0.59010637  0.03357865  0.30521785    -0.57300
O129        O  0.59520468  0.03580716  0.13529340    -0.57300
O130        O  0.61901437  0.04290282  0.22840452    -0.56500
O131        O  0.57217607  0.98361798  0.77603427    -0.57700
C132        C  0.56517622  0.97797296  0.63314399     0.74900
O133        O  0.55116041  0.94012484  0.70724905    -0.58900
C134        C  0.56680766  0.97699779  0.81364099     0.74900
C135        C  0.52924496  0.96172120  0.72738882     0.77300
Cd136      Cd  0.55660917  0.96450104  0.72316734     1.37500
O137        O  0.57258912  0.98364326  0.66916116    -0.57700
O138        O  0.54029155  0.97327036  0.71985858    -0.56500
C139        C  0.56387662  0.94309397  0.70615653     0.77200
O140        O  0.53078889  0.95117450  0.73376946    -0.58900
O141        O  0.55402704  0.96643377  0.63943900    -0.57300
O142        O  0.55715369  0.96439240  0.80938874    -0.57300
O143        O  0.57290682  0.95550422  0.71683253    -0.56500
O144        O  0.64532579  0.89503520  0.59814580    -0.57700
C145        C  0.63781970  0.89047369  0.45633509     0.74900
O146        O  0.61006595  0.85403951  0.53418501    -0.58900
C147        C  0.63892737  0.88921026  0.63566770     0.74900
C148        C  0.60499424  0.88933715  0.56251955     0.77300
Cd149      Cd  0.62487776  0.87996097  0.54656499     1.37500
O150        O  0.64496831  0.89316298  0.49356856    -0.57700
O151        O  0.61746488  0.89735242  0.54903432    -0.56500
C152        C  0.61998078  0.85165393  0.54343483     0.77200
O153        O  0.60112602  0.87644207  0.56560342    -0.58900
O154        O  0.62461139  0.88337034  0.46092949    -0.57300
O155        O  0.62633695  0.87951539  0.63131308    -0.57300
O156        O  0.63170023  0.86220048  0.55309625    -0.56500
O157        O  0.74469122  0.64211858  0.47281345    -0.57700
C158        C  0.75041915  0.63694840  0.33100057     0.74900
O159        O  0.75206922  0.60699998  0.42745017    -0.58900
C160        C  0.74239440  0.63525166  0.51062581     0.74900
C161        C  0.71221651  0.60488320  0.39983208     0.77300
Cd162      Cd  0.74185381  0.62291464  0.42056532     1.37500
O163        O  0.75233554  0.64383118  0.36819737    -0.57700
O164        O  0.71792401  0.61798592  0.40469213    -0.56500
C165        C  0.76437492  0.61695628  0.43587591     0.77200
O166        O  0.72010424  0.59968864  0.40672815    -0.58900
O167        O  0.74490955  0.62385613  0.33566777    -0.57300
O168        O  0.73911143  0.62255206  0.50651536    -0.57300
O169        O  0.76591207  0.62907470  0.43714549    -0.56500
O170        O  0.58441172  0.56388307  0.16986403    -0.57700
C171        C  0.57572269  0.55320338  0.30774653     0.74900
O172        O  0.57580336  0.52149928  0.22618881    -0.58900
C173        C  0.58829162  0.56009162  0.13396650     0.74900
C174        C  0.61443544  0.55634012  0.26321302     0.77300
Cd175      Cd  0.58675101  0.54754756  0.22490682     1.37500
O176        O  0.58197894  0.56260895  0.27692625    -0.57700
O177        O  0.60772303  0.56275464  0.26790512    -0.56500
C178        C  0.56412473  0.51942105  0.21008797     0.77200
O179        O  0.60872965  0.54559769  0.23737353    -0.58900
O180        O  0.57385037  0.54120521  0.29856407    -0.57300
O181        O  0.59232550  0.55129999  0.14075958    -0.57300
O182        O  0.56334851  0.53019358  0.20010494    -0.56500
O183        O  0.64601396  0.74297131  0.49749051    -0.57700
C184        C  0.64040583  0.74563383  0.63852266     0.74900
O185        O  0.60983089  0.74806271  0.54914232    -0.58900
C186        C  0.63900411  0.73962812  0.45979117     0.74900
C187        C  0.60891515  0.70832783  0.56541390     0.77300
Cd188      Cd  0.62615625  0.73808909  0.54892843     1.37500
O189        O  0.64731479  0.74821319  0.60093647    -0.57700
O190        O  0.62201962  0.71438357  0.55862284    -0.56500
C191        C  0.61939927  0.76016129  0.53668288     0.77200
O192        O  0.60325408  0.71587121  0.56088321    -0.58900
O193        O  0.62724742  0.74000345  0.63419245    -0.57300
O194        O  0.62591801  0.73497755  0.46357529    -0.57300
O195        O  0.63130394  0.76150439  0.52902234    -0.56500
O196        O  0.56822712  0.57719253  0.77490766    -0.57700
C197        C  0.55584392  0.57182194  0.63392943     0.74900
O198        O  0.52585692  0.57028531  0.72591940    -0.58900
C199        C  0.56474310  0.58066504  0.81247769     0.74900
C200        C  0.56248999  0.60996357  0.69730472     0.77300
Cd201      Cd  0.55195921  0.58103417  0.72380585     1.37500
O202        O  0.56487097  0.57503513  0.66625089    -0.57700
O203        O  0.56960486  0.60386356  0.69569497    -0.56500
C204        C  0.52374711  0.55850501  0.74064870     0.77200
O205        O  0.55034461  0.60302191  0.71518822    -0.58900
O206        O  0.54488060  0.57220918  0.64414372    -0.57300
O207        O  0.55601298  0.58492936  0.80841182    -0.57300
O208        O  0.53455670  0.55754028  0.74876160    -0.56500
O209        O  0.67886614  0.75943186  0.10632470    -0.57700
C210        C  0.68399872  0.76899145  0.96190250     0.74900
O211        O  0.71381228  0.80163086  0.05417384    -0.58900
C212        C  0.68594526  0.76399133  0.14364461     0.74900
C213        C  0.71521574  0.76346757  0.03393088     0.77300
Cd214      Cd  0.69779085  0.77548225  0.05238786     1.37500
O215        O  0.67690562  0.76425752  0.99912255    -0.57700
O216        O  0.70196017  0.75655058  0.03525038    -0.56500
C217        C  0.70385437  0.80396335  0.06281642     0.77200
O218        O  0.72091982  0.77636177  0.04393077    -0.58900
O219        O  0.69707125  0.77696577  0.96700703    -0.57300
O220        O  0.69864167  0.77347300  0.13871173    -0.57300
O221        O  0.69174662  0.79334528  0.06631616    -0.56500
O222        O  0.76077353  0.67461894  0.86613504    -0.57700
C223        C  0.77224498  0.68112986  0.00797116     0.74900
O224        O  0.80303537  0.71114109  0.91562161    -0.58900
C225        C  0.76432969  0.68157084  0.82826771     0.74900
C226        C  0.76502958  0.71186219  0.93539273     0.77300
Cd227      Cd  0.77701854  0.69447888  0.91699999     1.37500
O228        O  0.76681042  0.67399000  0.97139926    -0.57700
O229        O  0.75864236  0.69877980  0.94180134    -0.56500
C230        C  0.80586366  0.70179536  0.90350739     0.77200
O231        O  0.77726695  0.71727820  0.91815096    -0.58900
O232        O  0.78008214  0.69415269  0.00206043    -0.57300
O233        O  0.77313905  0.69448399  0.83194902    -0.57300
O234        O  0.79552147  0.68968959  0.89717370    -0.56500
O235        O  0.34978718  0.24175513  0.44989783    -0.57700
C236        C  0.35623164  0.24626047  0.30598642     0.74900
O237        O  0.39367287  0.26976355  0.38046802    -0.58900
C238        C  0.35705220  0.24715531  0.48630979     0.74900
C239        C  0.37434837  0.22626929  0.39989583     0.77300
Cd240      Cd  0.36973397  0.24968512  0.39609617     1.37500
O241        O  0.34987154  0.24587754  0.34330806    -0.57700
O242        O  0.36321751  0.22563246  0.38494069    -0.56500
C243        C  0.38941631  0.27854615  0.37959820     0.77200
O244        O  0.38393603  0.23812065  0.41388502    -0.58900
O245        O  0.36849763  0.24813673  0.31089735    -0.57300
O246        O  0.37021974  0.25412030  0.48080308    -0.57300
O247        O  0.37670968  0.27398800  0.39025485    -0.56500
O248        O  0.43025091  0.40802942  0.27823876    -0.57700
C249        C  0.43480954  0.40506738  0.13571265     0.74900
O250        O  0.47158755  0.41584362  0.21408322    -0.58900
C251        C  0.43687044  0.40840578  0.31514211     0.74900
C252        C  0.43769976  0.37478442  0.24132895     0.77300
Cd253      Cd  0.44568879  0.40362454  0.22582314     1.37500
O254        O  0.42968485  0.40666624  0.17315206    -0.57700
O255        O  0.42944984  0.37842170  0.22351209    -0.56500
C256        C  0.47303259  0.42797994  0.21585269     0.77200
O257        O  0.45019016  0.38446228  0.24865652    -0.58900
O258        O  0.44463207  0.40228473  0.14016308    -0.57300
O259        O  0.44732618  0.40670643  0.31003351    -0.57300
O260        O  0.46198175  0.42856673  0.22241246    -0.56500
O261        O  0.23541495  0.31207335  0.12214735    -0.57700
C262        C  0.22627839  0.30623511  0.98075710     0.74900
O263        O  0.21711697  0.26912468  0.05197780    -0.58900
C264        C  0.23028287  0.30554209  0.16009433     0.74900
C265        C  0.19113736  0.28643757  0.08039557     0.77300
Cd266      Cd  0.21963482  0.29232681  0.07053859     1.37500
O267        O  0.23286304  0.31264983  0.01722798    -0.57700
O268        O  0.20150904  0.29855315  0.07410692    -0.56500
C269        C  0.23013929  0.27331294  0.05419081     0.77200
O270        O  0.19377810  0.27648414  0.08208417    -0.58900
O271        O  0.21672879  0.29366540  0.98629243    -0.57300
O272        O  0.22067459  0.29289089  0.15637246    -0.57300
O273        O  0.23793659  0.28577028  0.06753525    -0.56500
O274        O  0.31897285  0.22968196  0.84170975    -0.57700
C275        C  0.31290577  0.22567489  0.98387149     0.74900
O276        O  0.27523636  0.21325030  0.91294334    -0.58900
C277        C  0.31176183  0.22661776  0.80452607     0.74900
C278        C  0.29421925  0.18879695  0.89044717     0.77300
Cd279      Cd  0.29902352  0.21681808  0.89499121     1.37500
O280        O  0.31896200  0.23241201  0.94702082    -0.57700
O281        O  0.30581312  0.19918231  0.90231271    -0.56500
C282        C  0.27936586  0.22622897  0.91315488     0.77200
O283        O  0.28433474  0.19122188  0.88109120    -0.58900
O284        O  0.30086104  0.21506814  0.97871259    -0.57300
O285        O  0.29856288  0.21954798  0.80925501    -0.57300
O286        O  0.29198733  0.23433882  0.90141981    -0.56500
O287        O  0.24694130  0.34308476  0.62216103    -0.57700
C288        C  0.25172965  0.35129221  0.47738188     0.74900
O289        O  0.24277727  0.37823500  0.57172479    -0.58900
C290        C  0.24809621  0.34993134  0.65888801     0.74900
C291        C  0.28323711  0.38118490  0.58288450     0.77300
Cd292      Cd  0.25384148  0.36320732  0.56838268     1.37500
O293        O  0.24953085  0.34418712  0.51460047    -0.57700
O294        O  0.27767362  0.36810783  0.57797622    -0.56500
C295        C  0.23053112  0.36802112  0.56435526     0.77200
O296        O  0.27531226  0.38636896  0.57672712    -0.58900
O297        O  0.25527124  0.36404066  0.48236215    -0.57300
O298        O  0.25179973  0.36267853  0.65327440    -0.57300
O299        O  0.22954526  0.35625155  0.55795100    -0.56500
O300        O  0.41377267  0.42308549  0.78136688    -0.57700
C301        C  0.41562023  0.42953004  0.63736570     0.74900
O302        O  0.39044782  0.44196351  0.70352722    -0.58900
C303        C  0.41188537  0.42822444  0.81821426     0.74900
C304        C  0.43351827  0.46633553  0.73418591     0.77300
Cd305      Cd  0.41016869  0.43829633  0.72633434     1.37500
O306        O  0.41478102  0.42272985  0.67429313    -0.57700
O307        O  0.43482519  0.45560522  0.73198833    -0.56500
C308        C  0.38099502  0.42948270  0.71191623     0.77200
O309        O  0.42107026  0.46423051  0.73298582    -0.58900
O310        O  0.41410449  0.44005040  0.64240612    -0.57300
O311        O  0.40892390  0.43785656  0.81255235    -0.57300
O312        O  0.38502589  0.42156385  0.72973131    -0.56500
O313        O  0.98968930  0.56701537  0.20405305    -0.57700
C314        C  0.98309837  0.56324939  0.34727281     0.74900
O315        O  0.94550282  0.55093170  0.27045817    -0.58900
C316        C  0.98252499  0.56436517  0.16686273     0.74900
C317        C  0.96356328  0.52609693  0.25725257     0.77300
Cd318      Cd  0.96937849  0.55452678  0.25732794     1.37500
O319        O  0.98896196  0.57016367  0.31051218    -0.57700
O320        O  0.97544667  0.53647602  0.26655977    -0.56500
C321        C  0.94960754  0.56387951  0.27266346     0.77200
O322        O  0.95394459  0.52875478  0.24622399    -0.58900
O323        O  0.97106721  0.55262184  0.34206268    -0.57300
O324        O  0.96932866  0.55741332  0.17157852    -0.57300
O325        O  0.96243534  0.57217453  0.26399387    -0.56500
O326        O  0.90070336  0.64630612  0.36868104    -0.57700
C327        C  0.89856863  0.64029071  0.51235940     0.74900
O328        O  0.86035754  0.61121836  0.43282178    -0.58900
C329        C  0.89439935  0.63956012  0.33235127     0.74900
C330        C  0.89675445  0.60751498  0.40967741     0.77300
Cd331      Cd  0.88650168  0.62670981  0.42385669     1.37500
O332        O  0.90024973  0.64722762  0.47507472    -0.57700
O333        O  0.90451363  0.62014672  0.42129002    -0.56500
C334        C  0.85787037  0.62126620  0.43378971     0.77200
O335        O  0.88366742  0.60312420  0.40783878    -0.58900
O336        O  0.89175469  0.62709655  0.50846062    -0.57300
O337        O  0.88464247  0.62713129  0.33872069    -0.57300
O338        O  0.86845854  0.63338876  0.43089322    -0.56500
O339        O  0.08446202  0.76434619  0.12714881    -0.57700
C340        C  0.08679394  0.77378569  0.98541237     0.74900
O341        O  0.05805756  0.78174650  0.06584675    -0.58900
C342        C  0.08203871  0.76868627  0.16484985     0.74900
C343        C  0.10237970  0.80859897  0.08447348     0.77300
Cd344      Cd  0.07998332  0.78004986  0.07545701     1.37500
O345        O  0.08725615  0.76739336  0.02177592    -0.57700
O346        O  0.10443340  0.79835056  0.08095806    -0.56500
C347        C  0.05028594  0.76872391  0.05910775     0.77200
O348        O  0.08968042  0.80576139  0.08381208    -0.58900
O349        O  0.08340342  0.78305663  0.99123687    -0.57300
O350        O  0.07833338  0.77781390  0.16075121    -0.57300
O351        O  0.05620074  0.76144861  0.06240913    -0.56500
O352        O  0.91432880  0.67705496  0.97374874    -0.57700
C353        C  0.92032490  0.68508697  0.83209907     0.74900
O354        O  0.90985489  0.71259559  0.91314316    -0.58900
C355        C  0.91432740  0.68333507  0.01066335     0.74900
C356        C  0.94983496  0.71654836  0.94728530     0.77300
Cd357      Cd  0.92098151  0.69757530  0.92194895     1.37500
O358        O  0.91601748  0.67789236  0.86923723    -0.57700
O359        O  0.94430534  0.70339038  0.94705323    -0.56500
C360        C  0.89745096  0.70232214  0.91655706     0.77200
O361        O  0.94228853  0.72144697  0.93202118    -0.58900
O362        O  0.92539416  0.69814182  0.83660658    -0.57300
O363        O  0.91712072  0.69586708  0.00582092    -0.57300
O364        O  0.89631013  0.69043312  0.92190723    -0.56500
O365        O  0.10129634  0.75113566  0.62859636    -0.57700
C366        C  0.10481561  0.74613308  0.48462289     0.74900
O367        O  0.14180874  0.75708085  0.56178954    -0.58900
C368        C  0.10826286  0.75190771  0.66507936     0.74900
C369        C  0.10682848  0.71663834  0.59746388     0.77300
Cd370      Cd  0.11581830  0.74543013  0.57602141     1.37500
O371        O  0.10013336  0.74862880  0.52149930    -0.57700
O372        O  0.09862147  0.72044766  0.58040395    -0.56500
C373        C  0.14361476  0.76930970  0.56622185     0.77200
O374        O  0.11960934  0.72603561  0.60135957    -0.58900
O375        O  0.11424972  0.74284724  0.49019172    -0.57300
O376        O  0.11836789  0.74966565  0.65975770    -0.57300
O377        O  0.13274130  0.77010565  0.57419758    -0.56500
O378        O  0.02096004  0.58295571  0.81032550    -0.57700
C379        C  0.02827028  0.58600326  0.66729319     0.74900
O380        O  0.06500420  0.61213108  0.74243858    -0.58900
C381        C  0.02792920  0.58789301  0.84760122     0.74900
C382        C  0.04753488  0.56838209  0.76318530     0.77300
Cd383      Cd  0.04160340  0.59107441  0.75803324     1.37500
O384        O  0.02162369  0.58535894  0.70418708    -0.57700
O385        O  0.03626676  0.56727623  0.74752286    -0.56500
C386        C  0.06017608  0.62044209  0.74060323     0.77200
O387        O  0.05674816  0.58044853  0.77692365    -0.58900
O388        O  0.04090787  0.58902972  0.67268907    -0.57300
O389        O  0.04115135  0.59459946  0.84327216    -0.57300
O390        O  0.04730837  0.61526699  0.75027678    -0.56500
O391        O  0.92414637  0.23360179  0.85160121    -0.57700
C392        C  0.91892944  0.22689750  0.98674793     0.74900
O393        O  0.91547145  0.19082566  0.90191645    -0.58900
C394        C  0.92694456  0.22942255  0.81421634     0.74900
C395        C  0.95370434  0.22098315  0.93192744     0.77300
Cd396      Cd  0.92643937  0.21685371  0.90406603     1.37500
O397        O  0.91166225  0.21462913  0.97129727    -0.57700
O398        O  0.95221695  0.22764410  0.89830714    -0.56500
C399        C  0.90375112  0.18868821  0.88627790     0.77200
O400        O  0.94249619  0.21156481  0.95043158    -0.58900
O401        O  0.92948939  0.23510832  0.96244382    -0.57300
O402        O  0.93036792  0.22008859  0.81878499    -0.57300
O403        O  0.90285433  0.19946219  0.87764453    -0.56500
O404        O  0.07649551  0.30820537  0.15551122    -0.57700
C405        C  0.08508139  0.30896235  0.02216382     0.74900
O406        O  0.08689170  0.27445866  0.09550917    -0.58900
C407        C  0.07677590  0.30218355  0.19309889     0.74900
C408        C  0.04966964  0.26794898  0.07483654     0.77300
Cd409      Cd  0.07716877  0.29057644  0.10262711     1.37500
O410        O  0.07309643  0.30386432  0.04069336    -0.57700
O411        O  0.06059548  0.27173457  0.05077165    -0.56500
C412        C  0.09895794  0.28337393  0.11041977     0.77200
O413        O  0.05153904  0.27377303  0.11420384    -0.58900
O414        O  0.09389574  0.30682302  0.04373755    -0.57300
O415        O  0.07675657  0.29078384  0.18848399    -0.57300
O416        O  0.10053352  0.29502150  0.12286117    -0.56500
O417        O  0.90949524  0.25019612  0.45768876    -0.57700
C418        C  0.89883446  0.24564460  0.31382615     0.74900
O419        O  0.86817640  0.24436831  0.41185966    -0.58900
C420        C  0.90574779  0.25376479  0.49447982     0.74900
C421        C  0.90459495  0.28319186  0.37992407     0.77300
Cd422      Cd  0.89396204  0.25416380  0.40401504     1.37500
O423        O  0.90744369  0.24836866  0.34721286    -0.57700
O424        O  0.91206519  0.27745857  0.38167043    -0.56500
C425        C  0.86574715  0.23208613  0.42111385     0.77200
O426        O  0.89189159  0.27567529  0.39236912    -0.58900
O427        O  0.88787170  0.24615156  0.32317187    -0.57300
O428        O  0.89704649  0.25800030  0.48899242    -0.57300
O429        O  0.87627224  0.23032891  0.42243726    -0.56500
O430        O  0.98970586  0.41678045  0.20365462    -0.57700
C431        C  0.98319926  0.41868387  0.34610073     0.74900
O432        O  0.95345706  0.42259308  0.25664117    -0.58900
C433        C  0.98315433  0.41555404  0.16581814     0.74900
C434        C  0.95283793  0.38364381  0.26907440     0.77300
Cd435      Cd  0.97014284  0.41311734  0.25570735     1.37500
O436        O  0.99030671  0.42464434  0.30983273    -0.57700
O437        O  0.96609882  0.38983489  0.26687678    -0.56500
C438        C  0.96336116  0.43519878  0.25457488     0.77200
O439        O  0.94713232  0.39102783  0.26109804    -0.58900
O440        O  0.97034626  0.40997428  0.34015974    -0.57300
O441        O  0.97057494  0.41284927  0.16973712    -0.57300
O442        O  0.97566793  0.43708225  0.25362559    -0.56500
O443        O  0.09543960  0.34002784  0.54835608    -0.57700
C444        C  0.10365405  0.34728352  0.69271640     0.74900
O445        O  0.13561022  0.37524821  0.58952274    -0.58900
C446        C  0.09774309  0.34714529  0.51117465     0.74900
C447        C  0.10017477  0.37952234  0.62062777     0.77300
Cd448      Cd  0.10971958  0.36007063  0.60082335     1.37500
O449        O  0.09564152  0.34096955  0.65842965    -0.57700
O450        O  0.09245080  0.36638250  0.62298734    -0.56500
C451        C  0.13800327  0.36516471  0.59344134     0.77200
O452        O  0.11263215  0.38406932  0.60639222    -0.58900
O453        O  0.11417460  0.35914049  0.68395161    -0.57300
O454        O  0.10523332  0.36026363  0.51556637    -0.57300
O455        O  0.12743704  0.35317699  0.59979225    -0.56500
O456        O  0.02078060  0.43320630  0.81094249    -0.57700
C457        C  0.02494532  0.44282749  0.66944347     0.74900
O458        O  0.05600923  0.47433537  0.75877767    -0.58900
C459        C  0.02825002  0.43729881  0.84759736     0.74900
C460        C  0.05628813  0.43555066  0.73163983     0.77300
Cd461      Cd  0.03977435  0.44827023  0.75661737     1.37500
O462        O  0.01861737  0.43618555  0.70608579    -0.57700
O463        O  0.04302692  0.42907685  0.73271579    -0.56500
C464        C  0.04618380  0.47678547  0.76851294     0.77200
O465        O  0.06241350  0.44816423  0.74525282    -0.58900
O466        O  0.03769803  0.45212043  0.67417420    -0.57300
O467        O  0.04116786  0.44600692  0.84186885    -0.57300
O468        O  0.03405316  0.46623677  0.77262634    -0.56500
C469        C  0.07637686  0.39114943  0.67353031    -0.10700
C470        C  0.08382953  0.40569603  0.66662507     0.06400
C471        C  0.09702750  0.41177450  0.64466922    -0.09500
C472        C  0.10244721  0.40336439  0.62911420    -0.11100
C473        C  0.09475120  0.38877211  0.63536710    -0.00900
C474        C  0.08169864  0.38281946  0.65788092    -0.10000
C475        C  0.07735442  0.41413353  0.68110633     0.06400
H476        H  0.10299237  0.42295047  0.63870611     0.08400
H477        H  0.11257694  0.40824217  0.61205074     0.11800
H478        H  0.07558369  0.37164999  0.66392475     0.12100
H479        H  0.06634929  0.38615070  0.69125840     0.08400
C480        C  0.06293768  0.40882343  0.67357097    -0.10700
C481        C  0.05629368  0.41587296  0.68999151    -0.10000
C482        C  0.06386193  0.42854275  0.71407910    -0.00900
C483        C  0.07841166  0.43423555  0.72018361    -0.11100
C484        C  0.08510607  0.42706037  0.70389843    -0.09500
H485        H  0.05672479  0.39910653  0.65504902     0.08400
H486        H  0.04513327  0.41134073  0.68372218     0.12100
H487        H  0.08452499  0.44405099  0.73823270     0.11800
H488        H  0.09623841  0.43142095  0.71023142     0.08400
C489        C  0.02024999  0.44305356  0.53889953    -0.10700
C490        C  0.00602615  0.43297966  0.53285174     0.06400
C491        C  0.99785267  0.42646417  0.57277869    -0.09500
C492        C  0.00387124  0.42977210  0.61744377    -0.11100
C493        C  0.01812271  0.43975996  0.62305548    -0.00900
C494        C  0.02617932  0.44646307  0.58335223    -0.10000
C495        C  0.99996795  0.42919515  0.48496053     0.06400
H496        H  0.98681079  0.41883298  0.56960292     0.08400
H497        H  0.99740914  0.42445340  0.64749598     0.11800
H498        H  0.03721905  0.45413757  0.58647964     0.12100
H499        H  0.02698979  0.44808957  0.50918176     0.08400
C500        C  0.00483338  0.43933376  0.44908763    -0.10700
C501        C  0.99972692  0.43574250  0.40361198    -0.10000
C502        C  0.98934180  0.42205207  0.39320441    -0.00900
C503        C  0.98422322  0.41191104  0.42883557    -0.11100
C504        C  0.98961112  0.41540417  0.47418395    -0.09500
H505        H  0.01249777  0.45012684  0.45613618     0.08400
H506        H  0.00358479  0.44378531  0.37681959     0.12100
H507        H  0.97616099  0.40126510  0.42146034     0.11800
H508        H  0.98577927  0.40725358  0.50056142     0.08400
C509        C  0.02393890  0.43523113  0.97917062    -0.10700
C510        C  0.00971304  0.42499728  0.98427069     0.06400
C511        C  0.00194604  0.41820911  0.94405250    -0.09500
C512        C  0.00806025  0.42196206  0.89977420    -0.11100
C513        C  0.02213491  0.43249190  0.89465796    -0.00900
C514        C  0.03008106  0.43891369  0.93487066    -0.10000
C515        C  0.00279598  0.42197702  0.03087730     0.06400
H516        H  0.99105528  0.41007988  0.94672686     0.08400
H517        H  0.00169679  0.41675969  0.86946381     0.11800
H518        H  0.04094709  0.44711026  0.93201644     0.12100
H519        H  0.03020319  0.44078701  0.00923726     0.08400
C520        C  0.00997246  0.42195331  0.07171914    -0.10700
C521        C  0.00357180  0.41972099  0.11554133    -0.10000
C522        C  0.98983568  0.41740852  0.11948377    -0.00900
C523        C  0.98262335  0.41729232  0.07868819    -0.11100
C524        C  0.98902407  0.41957940  0.03500144    -0.09500
H525        H  0.02053447  0.42362752  0.06982863     0.08400
H526        H  0.00939815  0.41986901  0.14635482     0.12100
H527        H  0.97207385  0.41566164  0.08055686     0.11800
H528        H  0.98327740  0.41981809  0.00450963     0.08400
C529        C  0.94493590  0.34844327  0.31549920    -0.10700
C530        C  0.93020339  0.34051245  0.31323562     0.06400
C531        C  0.92281288  0.34700709  0.29607968    -0.09500
C532        C  0.93004950  0.36102591  0.28110115    -0.11100
C533        C  0.94479355  0.36871047  0.28255253    -0.00900
C534        C  0.95209720  0.36223583  0.29993332    -0.10000
C535        C  0.92291238  0.32555999  0.32854514     0.06400
H536        H  0.91147056  0.34123132  0.29364220     0.08400
H537        H  0.92415528  0.36582000  0.26830482     0.11800
H538        H  0.96344786  0.36793759  0.30250807    -0.09500
H539        H  0.95102984  0.34407396  0.32997689     0.08400
C540        C  0.92945484  0.31754815  0.32188684    -0.10700
C541        C  0.92349025  0.30395550  0.33916917    -0.10000
C542        C  0.91058926  0.29774733  0.36265974    -0.00900
C543        C  0.90363575  0.30542357  0.36782904    -0.11100
C544        C  0.90978658  0.31925622  0.35117380    -0.09500
H545        H  0.93927142  0.32176000  0.30313877     0.08400
H546        H  0.92897421  0.29822989  0.33360334     0.12100
H547        H  0.89359473  0.30083055  0.38539901     0.11800
H548        H  0.90443790  0.32508880  0.35704446     0.08400
C549        C  0.10430152  0.32696737  0.91102421    -0.10700
C550        C  0.09337822  0.32631363  0.88327937     0.06400
C551        C  0.07997130  0.32084343  0.90307031    -0.09500
C552        C  0.07746311  0.31584934  0.94906875    -0.11100
C553        C  0.08828548  0.31614454  0.97626929    -0.00900
C554        C  0.10177600  0.32191687  0.95696619    -0.10000
C555        C  0.09599628  0.33135362  0.83398385     0.06400
H556        H  0.07138876  0.32039868  0.88294602     0.08400
H557        H  0.06693257  0.31136053  0.96285846     0.11800
H558        H  0.11030005  0.32216738  0.97691750     0.12100
H559        H  0.11472188  0.33099515  0.89676977     0.08400
C560        C  0.10854258  0.34349822  0.82192966    -0.10700
C561        C  0.11101645  0.34844927  0.77598383    -0.10000
C562        C  0.10102071  0.34141284  0.74076811    -0.00900
C563        C  0.08853978  0.32912214  0.75244339    -0.11100
C564        C  0.08603697  0.32416046  0.79864273    -0.09500
H565        H  0.11636177  0.34937692  0.84825559     0.08400
H566        H  0.12075815  0.35793132  0.76815115     0.12100
H567        H  0.08066415  0.32344872  0.72604448     0.11800
H568        H  0.07634842  0.31464343  0.80664392     0.08400
C569        C  0.07851282  0.32655574  0.28964246    -0.10700
C570        C  0.08080547  0.32041069  0.32961189     0.06400
C571        C  0.08095359  0.30782383  0.32411302    -0.09500
C572        C  0.07926525  0.30179066  0.28005610    -0.11100
C573        C  0.07744878  0.30817181  0.24002816    -0.00900
C574        C  0.07690564  0.32053805  0.24537851    -0.10000
C575        C  0.08387759  0.32739611  0.37632453     0.06400
H576        H  0.08291509  0.30285058  0.35363185     0.08400
H577        H  0.07977717  0.29227755  0.27722108     0.11800
H578        H  0.07543472  0.32566792  0.21527808     0.12100
H579        H  0.07808068  0.33610402  0.29244255     0.08400
C580        C  0.09189761  0.34206065  0.37997815    -0.10700
C581        C  0.09603377  0.34850729  0.42373904    -0.10000
C582        C  0.09230216  0.34047353  0.46501655    -0.00900
C583        C  0.08385894  0.32588783  0.46156888    -0.11100
C584        C  0.07965566  0.31944682  0.41789064    -0.09500
H585        H  0.09550107  0.34856613  0.34897414     0.08400
H586        H  0.10253003  0.35978175  0.42514785     0.12100
H587        H  0.08069861  0.31940119  0.49267168     0.11800
H588        H  0.07322338  0.30817457  0.41675352     0.08400
C589        C  0.99316124  0.23974061  0.94707585    -0.10700
C590        C  0.99460842  0.23521323  0.99174921     0.06400
C591        C  0.98253759  0.22484318  0.01447353    -0.09500
C592        C  0.96925990  0.21954703  0.99377775    -0.11100
C593        C  0.96778234  0.22466084  0.95019786    -0.00900
C594        C  0.97990955  0.23457037  0.92666063    -0.10000
C595        C  0.00857009  0.24201126  0.01529684     0.06400
H596        H  0.98334629  0.22103746  0.04867992     0.08400
H597        H  0.96010942  0.21191919  0.01279924     0.11800
H598        H  0.97912215  0.23872976  0.89309301     0.12100
H599        H  0.00222777  0.24778975  0.92879825     0.08400
C600        C  0.02072801  0.24511213  0.99018168    -0.10700
C601        C  0.03401463  0.25291470  0.01051839    -0.10000
C602        C  0.03550388  0.25791601  0.05639839    -0.00900
C603        C  0.02332708  0.25436168  0.08224160    -0.11100
C604        C  0.00999421  0.24644145  0.06195657    -0.09500
H605        H  0.01997025  0.24173463  0.95436745     0.08400
H606        H  0.04316687  0.25546804  0.98961044     0.12100
H607        H  0.02411591  0.25812189  0.11755947     0.11800
H608        H  0.00083159  0.24434229  0.08206028     0.08400
C609        C  0.92242324  0.24588355  0.10054459    -0.10700
C610        C  0.90974541  0.23654586  0.12299587     0.06400
C611        C  0.89976906  0.22473621  0.09851851    -0.09500
C612        C  0.90258654  0.22197341  0.05357888    -0.11100
C613        C  0.91543145  0.23100451  0.03171792    -0.00900
C614        C  0.92520103  0.24316873  0.05522031    -0.10000
C615        C  0.90700973  0.23879830  0.17216331     0.06400
H616        H  0.88994121  0.21729357  0.11482426     0.08400
H617        H  0.89483699  0.21253483  0.03640629     0.11800
H618        H  0.93520076  0.25033115  0.03926092     0.12100
H619        H  0.93022172  0.25518546  0.11822236     0.08400
C620        C  0.91755581  0.24309592  0.20647216    -0.10700
C621        C  0.91482154  0.24488254  0.25291599    -0.10000
C622        C  0.90150441  0.24253889  0.26589634    -0.00900
C623        C  0.89093865  0.23810644  0.23169456    -0.11100
C624        C  0.89363362  0.23622286  0.18546700    -0.09500
H625        H  0.92790806  0.24494877  0.19747785     0.08400
H626        H  0.92318222  0.24835154  0.27842307     0.12100
H627        H  0.88057285  0.23624931  0.24053261     0.11800
H628        H  0.88530824  0.23298140  0.15991741     0.08400
C629        C  0.92137248  0.25051786  0.71944111    -0.10700
C630        C  0.92147655  0.24357853  0.67851278     0.06400
C631        C  0.92387718  0.23222218  0.68295002    -0.09500
C632        C  0.92605313  0.22791774  0.72679667    -0.11100
C633        C  0.92574504  0.23473577  0.76757905    -0.00900
C634        C  0.92340857  0.24610449  0.76340360    -0.10000
C635        C  0.91855036  0.24768763  0.63157626     0.06400
H636        H  0.92368576  0.22635313  0.65261621     0.08400
H637        H  0.92760835  0.21898091  0.72882813     0.11800
H638        H  0.92306422  0.25154272  0.79419639     0.12100
H639        H  0.91972287  0.25938932  0.71761160     0.08400
C640        C  0.90879745  0.25234885  0.62639149    -0.10700
C641        C  0.90503774  0.25481891  0.58195334    -0.10000
C642        C  0.91086450  0.25263113  0.54153979    -0.00900
C643        C  0.92103263  0.24856894  0.54665175    -0.11100
C644        C  0.92489003  0.24622270  0.59105371    -0.09500
H645        H  0.90358916  0.25352345  0.65649759     0.08400
H646        H  0.89717836  0.25797387  0.57921539     0.12100
H647        H  0.92582857  0.24694013  0.51625153     0.11800
H648        H  0.93272842  0.24304788  0.59351490     0.08400
C649        C  0.06127992  0.54362426  0.79297333    -0.10700
C650        C  0.05080631  0.53117328  0.77260867     0.06400
C651        C  0.03992141  0.53138518  0.74752648    -0.09500
C652        C  0.03920584  0.54357755  0.74387676    -0.11100
C653        C  0.04935021  0.55596352  0.76525642    -0.00900
C654        C  0.06053403  0.55595988  0.78943450    -0.10000
C655        C  0.05064240  0.51770789  0.77769627     0.06400
H656        H  0.03185652  0.52201678  0.73077298     0.08400
H657        H  0.03053189  0.54322473  0.72459299     0.11800
H658        H  0.06848782  0.56536144  0.80630387     0.12100
H659        H  0.06977692  0.54370382  0.81254285     0.08400
C660        C  0.06236660  0.51641987  0.76632244    -0.10700
C661        C  0.06119437  0.50315025  0.76446184    -0.10000
C662        C  0.04830257  0.49104719  0.77425372    -0.00900
C663        C  0.03686938  0.49252403  0.78795066    -0.11100
C664        C  0.03803058  0.50565340  0.78970288    -0.09500
H665        H  0.07219548  0.52557481  0.75678411     0.08400
H666        H  0.07019350  0.50232647  0.75397863     0.12100
H667        H  0.02683089  0.48345792  0.79626304     0.11800
H668        H  0.02888950  0.50636492  0.79921104     0.08400
C669        C  0.08962632  0.65403839  0.68855780    -0.10700
C670        C  0.08284323  0.66187823  0.68220345     0.06400
C671        C  0.06921005  0.65655341  0.69975832    -0.09500
C672        C  0.06223436  0.64342659  0.72112964    -0.11100
C673        C  0.06865888  0.63520625  0.72520135    -0.00900
C674        C  0.08256211  0.64076865  0.70970692    -0.10000
C675        C  0.08966868  0.67544692  0.65665545     0.06400
H676        H  0.06384280  0.66249517  0.69639337     0.08400
H677        H  0.05157255  0.63950652  0.73295005     0.11800
H678        H  0.08778015  0.63467234  0.71236289     0.12100
H679        H  0.10016269  0.65792663  0.67552889     0.08400
C680        C  0.10362824  0.68568592  0.66609037    -0.10700
C681        C  0.10948670  0.69892715  0.64507104    -0.10000
C682        C  0.10149611  0.70214177  0.61419922    -0.00900
C683        C  0.08775909  0.69169071  0.60319798    -0.11100
C684        C  0.08193161  0.67848780  0.62407790    -0.09500
H685        H  0.10980489  0.68364736  0.69117651     0.08400
H686        H  0.12006096  0.70682675  0.65449814     0.12100
H687        H  0.08136924  0.69383570  0.57937217     0.11800
H688        H  0.07123769  0.67070681  0.61542439     0.08400
C689        C  0.01381195  0.76288578  0.03003528    -0.10700
C690        C  0.00665143  0.74857753  0.01855401     0.06400
C691        C  0.01400395  0.74121600  0.02120272    -0.09500
C692        C  0.02797814  0.74781284  0.03528047    -0.11100
C693        C  0.03519449  0.76205606  0.04665558    -0.00900
C694        C  0.02799315  0.76958872  0.04390125    -0.10000
C695        C  0.99167711  0.74108813  0.00311217     0.06400
H696        H  0.00904499  0.73032591  0.01141070     0.08400
H697        H  0.03321905  0.74171342  0.03640018     0.11800
H698        H  0.03331120  0.78060485  0.05225564     0.12100
H699        H  0.00844705  0.76885958  0.02858122     0.08400
C700        C  0.98295576  0.72700675  0.01589441    -0.10700
C701        C  0.96949977  0.71923413  0.99735471    -0.10000
C702        C  0.96415462  0.72535005  0.96639255    -0.00900
C703        C  0.97248696  0.73961881  0.95524975    -0.11100
C704        C  0.98619264  0.74741043  0.97324406    -0.09500
H705        H  0.98659252  0.72188081  0.03995831     0.08400
H706        H  0.96320940  0.70834917  0.00756445     0.12100
H707        H  0.96856044  0.74461520  0.93176463     0.11800
H708        H  0.99263210  0.75822181  0.96254771     0.08400
C709        C  0.09565558  0.75675199  0.88723603    -0.10700
C710        C  0.09593631  0.76476970  0.84842160     0.06400
C711        C  0.09315962  0.77574858  0.85510912    -0.09500
C712        C  0.09021173  0.77865439  0.89966729    -0.11100
C713        C  0.08997211  0.77066083  0.93845932    -0.00900
C714        C  0.09268911  0.75964815  0.93181739    -0.10000
C715        C  0.09914297  0.76169895  0.80115657     0.06400
H716        H  0.09345047  0.78219084  0.82599104     0.08400
H717        H  0.08817066  0.78723125  0.90373932     0.11800
H718        H  0.09246966  0.75325406  0.96098845     0.12100
H719        H  0.09756863  0.74809789  0.88301976     0.08400
C720        C  0.10996275  0.75860661  0.79506108    -0.10700
C721        C  0.11286178  0.75545248  0.75085287    -0.10000
C722        C  0.10501067  0.75527978  0.71167109    -0.00900
C723        C  0.09423101  0.75844518  0.71762109    -0.11100
C724        C  0.09137071  0.76167910  0.76194215    -0.09500
H725        H  0.11625962  0.75874262  0.82445074     0.08400
H726        H  0.12129408  0.75312471  0.74741554     0.12100
H727        H  0.08802581  0.75840612  0.68811018     0.11800
H728        H  0.08289104  0.76392473  0.76568234     0.08400
C729        C  0.08641549  0.76714229  0.29556648    -0.10700
C730        C  0.08850213  0.75563066  0.30081409     0.06400
C731        C  0.08791390  0.74805344  0.26070950    -0.09500
C732        C  0.08563436  0.75210942  0.21643315    -0.11100
C733        C  0.08375805  0.76375180  0.21143237    -0.00900
C734        C  0.08401591  0.77109336  0.25155129    -0.10000
C735        C  0.09184277  0.75202641  0.34773722     0.06400
H736        H  0.08926042  0.73900391  0.26350951     0.08400
H737        H  0.08540592  0.74619583  0.18616249     0.11800
H738        H  0.08271442  0.78017512  0.24883722     0.12100
H739        H  0.08704963  0.77339769  0.32535061     0.08400
C740        C  0.10184457  0.74769265  0.35270767    -0.10700
C741        C  0.10578110  0.74539753  0.39707580    -0.10000
C742        C  0.09983420  0.74739860  0.43752447    -0.00900
C743        C  0.08956786  0.75134324  0.43257088    -0.11100
C744        C  0.08560736  0.75360072  0.38827529    -0.09500
H745        H  0.10700462  0.74654779  0.32240649     0.08400
H746        H  0.11375664  0.74239528  0.39971904     0.12100
H747        H  0.08475028  0.75291907  0.46300647     0.11800
H748        H  0.07769615  0.75668706  0.38584195     0.08400
C749        C  0.90867955  0.65787809  0.73627562    -0.10700
C750        C  0.91460447  0.66615764  0.69597085     0.06400
C751        C  0.92323386  0.68070822  0.70180310    -0.09500
C752        C  0.92535522  0.68681606  0.74602148    -0.11100
C753        C  0.91908861  0.67854578  0.78583311    -0.00900
C754        C  0.91097206  0.66398099  0.78056068    -0.10000
C755        C  0.91137411  0.65974459  0.64814367     0.06400
H756        H  0.92833628  0.68746398  0.67213677     0.08400
H757        H  0.93179030  0.69806113  0.74895331     0.11800
H758        H  0.90597381  0.65730850  0.81053964     0.12100
H759        H  0.90183568  0.64669271  0.73365003     0.08400
C760        C  0.90860494  0.64596971  0.64102631    -0.10700
C761        C  0.90476557  0.63975796  0.59681826    -0.10000
C762        C  0.90379655  0.64720210  0.55829856    -0.00900
C763        C  0.90700696  0.66108194  0.56482514    -0.11100
C764        C  0.91059184  0.66721464  0.60913432    -0.09500
H765        H  0.90936428  0.63991136  0.66962233     0.08400
H766        H  0.90245227  0.62906967  0.59283922     0.12100
H767        H  0.90623626  0.66706203  0.53594327     0.11800
H768        H  0.91232164  0.67769756  0.61289100     0.08400
C769        C  0.90452149  0.65626122  0.10700201    -0.10700
C770        C  0.90637187  0.66427699  0.14716837     0.06400
C771        C  0.91071345  0.67853039  0.14171667    -0.09500
C772        C  0.91321114  0.68461618  0.09734084    -0.11100
C773        C  0.91141939  0.67662888  0.05729475    -0.00900
C774        C  0.90703312  0.66237177  0.06250368    -0.10000
C775        C  0.90367246  0.65782626  0.19455247     0.06400
H776        H  0.91200420  0.68496011  0.17170832     0.08400
H777        H  0.91659344  0.69564643  0.09444593     0.11800
H778        H  0.90558740  0.65597114  0.03227030     0.12100
H779        H  0.90133935  0.64528410  0.10994788     0.08400
C780        C  0.89247013  0.64418840  0.20197152    -0.10700
C781        C  0.88970136  0.63821640  0.24656869    -0.10000
C782        C  0.89794635  0.64576634  0.28495241    -0.00900
C783        C  0.90927900  0.65931850  0.27762561    -0.11100
C784        C  0.91212112  0.66527285  0.23286494    -0.09500
H785        H  0.88563239  0.63822674  0.17351080     0.08400
H786        H  0.88088401  0.62773473  0.25110871     0.12100
H787        H  0.91588113  0.66533046  0.30647741     0.11800
H788        H  0.92100020  0.67571036  0.22825653     0.08400
C789        C  0.94797870  0.48687782  0.24219174    -0.10700
C790        C  0.95888082  0.48507545  0.26039646     0.06400
C791        C  0.97060067  0.49656484  0.28046819    -0.09500
C792        C  0.97187316  0.50973067  0.27985466    -0.11100
C793        C  0.96136708  0.51177107  0.25973076    -0.00900
C794        C  0.94921473  0.50017695  0.24188288    -0.10000
C795        C  0.95898370  0.47177065  0.25539243     0.06400
H796        H  0.97901504  0.49542419  0.29572358     0.08400
H797        H  0.98124534  0.51838638  0.29467867     0.11800
H798        H  0.94091092  0.50146945  0.22650590     0.12100
H799        H  0.93883244  0.47817440  0.22653554     0.08400
C800        C  0.94733323  0.45869997  0.26682141    -0.10700
C801        C  0.94842541  0.44653299  0.26560039    -0.10000
C802        C  0.96117707  0.44737650  0.25295214    -0.00900
C803        C  0.97250051  0.46037690  0.23966717    -0.11100
C804        C  0.97139402  0.47235176  0.24060373    -0.09500
H805        H  0.93761629  0.45798108  0.27814393     0.08400
H806        H  0.93950843  0.43660919  0.27578370     0.12100
H807        H  0.98238203  0.46136571  0.22890546     0.11800
H808        H  0.98040961  0.48219752  0.23031576     0.08400
C809        C  0.93780136  0.58894661  0.31125252    -0.10700
C810        C  0.92450436  0.57988602  0.33038051     0.06400
C811        C  0.91890277  0.56538049  0.32577019    -0.09500
C812        C  0.92673672  0.56008722  0.30461897    -0.11100
C813        C  0.94030220  0.56920306  0.28767038    -0.00900
C814        C  0.94560021  0.58367827  0.29025375    -0.10000
C815        C  0.91678847  0.58571185  0.35570423     0.06400
H816        H  0.90870781  0.55812146  0.34012444     0.08400
H817        H  0.92240996  0.54887537  0.30327963     0.11800
H818        H  0.95599282  0.59098224  0.27735222     0.12100
H819        H  0.94228658  0.60017304  0.31299442     0.08400
C820        C  0.92419328  0.59756425  0.38395484    -0.10700
C821        C  0.91741347  0.60407592  0.40384557    -0.10000
C822        C  0.90302141  0.59888440  0.39628390    -0.00900
C823        C  0.89535370  0.58647486  0.37079085    -0.11100
C824        C  0.90218576  0.57994600  0.35062242    -0.09500
H825        H  0.93535422  0.60202914  0.38987546     0.08400
H826        H  0.92358975  0.61352608  0.42376323     0.12100
H827        H  0.88424795  0.58224290  0.36433025     0.11800
H828        H  0.89616444  0.57080328  0.32920184     0.08400
C829        C  0.00105244  0.57518993  0.57075641    -0.10700
C830        C  0.00921628  0.57755544  0.53046380     0.06400
C831        C  0.02373609  0.58292200  0.53563207    -0.09500
C832        C  0.02989558  0.58569074  0.58004794    -0.11100
C833        C  0.02171490  0.58328089  0.62030061    -0.00900
C834        C  0.00723121  0.57805719  0.61516159    -0.10000
C835        C  0.00255614  0.57409102  0.48337141     0.06400
H836        H  0.03028279  0.58469249  0.50539742     0.08400
H837        H  0.04109369  0.58968759  0.58285543     0.11800
H838        H  0.00065862  0.57607488  0.64547728     0.12100
H839        H  0.98985505  0.57118742  0.56793153     0.08400
C840        C  0.98969507  0.56171884  0.47664252    -0.10700
C841        C  0.98341837  0.55830105  0.43252029    -0.10000
C842        C  0.98983380  0.56713939  0.39393839    -0.00900
C843        C  0.00270484  0.57951723  0.40048613    -0.11100
C844        C  0.00900146  0.58294951  0.44476475    -0.09500
H845        H  0.98458395  0.55455468  0.50539793     0.08400
H846        H  0.97354876  0.54862500  0.42858283     0.12100
H847        H  0.00788154  0.58653822  0.37145219     0.11800
H848        H  0.01886223  0.59262133  0.44889798     0.08400
C849        C  0.00942520  0.57639132  0.06973435    -0.10700
C850        C  0.00169096  0.57662812  0.03066639     0.06400
C851        C  0.98761261  0.57309141  0.03737788    -0.09500
C852        C  0.98141118  0.56919757  0.08161552    -0.11100
C853        C  0.98918465  0.56894783  0.12036814    -0.00900
C854        C  0.00328698  0.57272200  0.11403058    -0.10000
C855        C  0.00822903  0.58019127  0.98318583     0.06400
H856        H  0.98136018  0.57337079  0.00848375     0.08400
H857        H  0.97053223  0.56642152  0.08554415     0.11800
H858        H  0.00949792  0.57249371  0.14317000     0.12100
H859        H  0.02016425  0.57872066  0.06602737     0.08400
C860        C  0.02261271  0.58991727  0.97765745    -0.10700
C861        C  0.02895139  0.59256263  0.93364885    -0.10000
C862        C  0.02104632  0.58570196  0.89382182    -0.00900
C863        C  0.00660541  0.57631912  0.89893450    -0.11100
C864        C  0.00028448  0.57354700  0.94303275    -0.09500
H865        H  0.02904060  0.59550561  0.00741293     0.08400
H866        H  0.04008361  0.59993062  0.93085857     0.12100
H867        H  0.00023448  0.57082288  0.86895224     0.11800
H868        H  0.98925053  0.56586104  0.94572518     0.08400
C869        C  0.16737635  0.35687663  0.59840603    -0.10700
C870        C  0.17885123  0.36921806  0.58110641     0.06400
C871        C  0.17700986  0.38065197  0.57030271    -0.09500
C872        C  0.16379659  0.37953980  0.57510316    -0.11100
C873        C  0.15224436  0.36697355  0.59072466    -0.00900
C874        C  0.15424911  0.35575245  0.60297209    -0.10000
C875        C  0.19244766  0.36975342  0.57313398     0.06400
H876        H  0.18566365  0.39028290  0.55683363     0.08400
H877        H  0.16254105  0.38836270  0.56556317     0.11800
H878        H  0.14560874  0.34599824  0.61580432     0.12100
H879        H  0.16852728  0.34800409  0.60817106     0.08400
C880        C  0.20532303  0.38151881  0.58545748    -0.10700
C881        C  0.21791770  0.38129571  0.58108008    -0.10000
C882        C  0.21778384  0.36930637  0.56429144    -0.00900
C883        C  0.20498046  0.35784404  0.55009870    -0.11100
C884        C  0.19250023  0.35807460  0.55436448    -0.09500
H885        H  0.20559150  0.39066248  0.60004642     0.08400
H886        H  0.22765126  0.39027254  0.59228771     0.12100
H887        H  0.20453935  0.34850846  0.53649620     0.11800
H888        H  0.18281423  0.34898843  0.54342929     0.08400
C889        C  0.31696207  0.41095373  0.63132397    -0.10700
C890        C  0.32476816  0.40423929  0.63973488     0.06400
C891        C  0.31925516  0.39031356  0.62561330    -0.09500
C892        C  0.30602808  0.38308756  0.60501929    -0.11100
C893        C  0.29798680  0.38961061  0.59805463    -0.00900
C894        C  0.30365149  0.40368207  0.61069720    -0.10000
C895        C  0.33865429  0.41157677  0.66298717     0.06400
H896        H  0.32516710  0.38496788  0.63066632     0.08400
H897        H  0.30195082  0.37224715  0.59566737     0.11800
H898        H  0.29761661  0.40891415  0.60609452     0.12100
H899        H  0.32096825  0.42167886  0.64196606     0.08400
C900        C  0.34863334  0.42533490  0.65032055    -0.10700
C901        C  0.36228276  0.43154525  0.66835432    -0.10000
C902        C  0.36614502  0.42408054  0.69923265    -0.00900
C903        C  0.35593134  0.41064093  0.71386867    -0.11100
C904        C  0.34232097  0.40447990  0.69606915    -0.09500
H905        H  0.34609263  0.43101897  0.62478703     0.08400
H906        H  0.36998098  0.44190505  0.65633924     0.12100
H907        H  0.35858363  0.40468851  0.73790119     0.11800
H908        H  0.33473775  0.39398157  0.70728212     0.08400
C909        C  0.15147395  0.26950687  0.09147503    -0.10700
C910        C  0.14998607  0.28132369  0.09754864     0.06400
C911        C  0.16200946  0.29464133  0.09683155    -0.09500
C912        C  0.17525305  0.29615511  0.09091346    -0.11100
C913        C  0.17686039  0.28439192  0.08582531    -0.00900
C914        C  0.16484296  0.27102035  0.08601106    -0.10000
C915        C  0.13606568  0.28005493  0.10488061     0.06400
H916        H  0.16115496  0.30394084  0.10058566     0.08400
H917        H  0.18428411  0.30660583  0.09072329     0.11800
H918        H  0.16578144  0.26178379  0.08190826     0.12100
H919        H  0.14234031  0.25912670  0.09186531     0.08400
C920        C  0.12461837  0.27169053  0.07565818    -0.10700
C921        C  0.11208565  0.27204111  0.07923355    -0.10000
C922        C  0.11090795  0.28083171  0.11184768    -0.00900
C923        C  0.12207932  0.28856902  0.14265132    -0.11100
C924        C  0.13449377  0.28813618  0.13935248    -0.09500
H925        H  0.12560408  0.26543429  0.04863829     0.08400
H926        H  0.10363994  0.26607206  0.05485034     0.12100
H927        H  0.12137729  0.29532879  0.16837964     0.11800
H928        H  0.14306331  0.29447530  0.16288642     0.08400
C929        C  0.24476832  0.33190060  0.88180953    -0.10700
C930        C  0.23595945  0.32495712  0.84364031     0.06400
C931        C  0.22389064  0.31189543  0.85123572    -0.09500
C932        C  0.22074844  0.30590884  0.89584133    -0.11100
C933        C  0.22954472  0.31285566  0.93394441    -0.00900
C934        C  0.24157540  0.32593645  0.92653731    -0.10000
C935        C  0.23925561  0.33134376  0.79617541     0.06400
H936        H  0.21677431  0.30637457  0.82280105     0.08400
H937        H  0.21136549  0.29582261  0.90050898     0.11800
H938        H  0.24860112  0.33146749  0.95516419     0.12100
H939        H  0.25425744  0.34188525  0.87699913     0.08400
C940        C  0.24458180  0.34577459  0.79026902    -0.10700
C941        C  0.24752508  0.35178023  0.74569445    -0.10000
C942        C  0.24521807  0.34350907  0.70597142    -0.00900
C943        C  0.23999300  0.32910762  0.71175456    -0.11100
C944        C  0.23701659  0.32308448  0.75639397    -0.09500
H945        H  0.24624609  0.35239710  0.82006402     0.08400
H946        H  0.25154566  0.36292550  0.74235324     0.12100
H947        H  0.23814512  0.32249252  0.68178845     0.11800
H948        H  0.23309195  0.31196090  0.75979324     0.08400
C949        C  0.24894386  0.34640592  0.34579822    -0.10700
C950        C  0.24572171  0.33241654  0.34148243     0.06400
C951        C  0.24501566  0.32492537  0.38236426    -0.09500
C952        C  0.24708251  0.33109284  0.42633255    -0.11100
C953        C  0.25006303  0.34497369  0.43059903    -0.00900
C954        C  0.25110050  0.35260648  0.38983207    -0.10000
C955        C  0.24242374  0.32544748  0.29492905     0.06400
H956        H  0.24282289  0.31422831  0.38046094     0.08400
H957        H  0.24628364  0.32495767  0.45703648     0.11800
H958        H  0.25332798  0.36331659  0.39198495     0.12100
H959        H  0.24938830  0.35245083  0.31526417     0.08400
C960        C  0.23174902  0.31140699  0.29068252    -0.10700
C961        C  0.22809580  0.30493466  0.24708769    -0.10000
C962        C  0.23493779  0.31231194  0.20639056    -0.00900
C963        C  0.24576931  0.32628609  0.21042797    -0.11100
C964        C  0.24948656  0.33277207  0.25422547    -0.09500
H965        H  0.22588864  0.30548601  0.32094504     0.08400
H966        H  0.21965328  0.29418295  0.24519025     0.12100
H967        H  0.25126622  0.33224293  0.17971577     0.11800
H968        H  0.25789014  0.34353415  0.25617558     0.08400
C969        C  0.25680543  0.26258162  0.02354550    -0.10700
C970        C  0.24872866  0.25035440  0.99745912     0.06400
C971        C  0.23413477  0.24490212  0.99465946    -0.09500
C972        C  0.22790852  0.25193674  0.01538854    -0.11100
C973        C  0.23615078  0.26457008  0.03920391    -0.00900
C974        C  0.25061523  0.26962040  0.04397442    -0.10000
C975        C  0.25572104  0.24379332  0.97190932     0.06400
H976        H  0.22761441  0.23554127  0.97478028     0.08400
H977        H  0.21673787  0.24781350  0.01096831     0.11800
H978        H  0.25725236  0.27927389  0.06231611     0.12100
H979        H  0.26801644  0.26688111  0.02754034     0.08400
C980        C  0.26878341  0.25231205  0.95054535    -0.10700
C981        C  0.27602241  0.24647018  0.92941368    -0.10000
C982        C  0.27042219  0.23192833  0.92888445    -0.00900
C983        C  0.25702289  0.22328455  0.94799495    -0.11100
C984        C  0.24971560  0.22917262  0.96924772    -0.09500
H985        H  0.27353856  0.26358057  0.95061473     0.08400
H986        H  0.28627089  0.25343067  0.91474209     0.12100
H987        H  0.25244396  0.21203089  0.94814157     0.11800
H988        H  0.23964766  0.22230615  0.98521856     0.08400
C989        C  0.42182908  0.43069760  0.50707810    -0.10700
C990        C  0.42277608  0.41863393  0.49986847     0.06400
C991        C  0.42133761  0.41005954  0.53856660    -0.09500
C992        C  0.41904147  0.41351071  0.58345502    -0.11100
C993        C  0.41815809  0.42563216  0.59046358    -0.00900
C994        C  0.41956675  0.43414217  0.55173936    -0.10000
C995        C  0.42579643  0.41541127  0.45237684     0.06400
H996        H  0.42190463  0.40061705  0.53407506     0.08400
H997        H  0.41793036  0.40671643  0.61252882     0.11800
H998        H  0.41898700  0.44358792  0.55591723     0.12100
H999        H  0.42313076  0.43764871  0.47829562     0.08400
C1000       C  0.41949350  0.41745505  0.41239204    -0.10700
C1001       C  0.42290863  0.41504704  0.36764978    -0.10000
C1002       C  0.43279818  0.41066152  0.36204121    -0.00900
C1003       C  0.43900857  0.40853674  0.40196607    -0.11100
C1004       C  0.43551358  0.41081494  0.44656789    -0.09500
H1005       H  0.41187220  0.42089030  0.41572669     0.08400
H1006       H  0.41795809  0.41676435  0.33752911     0.12100
H1007       H  0.44666091  0.40513454  0.39877701     0.11800
H1008       H  0.44069556  0.40932707  0.47647074     0.08400
C1009       C  0.41473579  0.41213378  0.04160449    -0.10700
C1010       C  0.42148421  0.41160528  0.00079617     0.06400
C1011       C  0.43225928  0.40830117  0.00470258    -0.09500
C1012       C  0.43638776  0.40588679  0.04843225    -0.11100
C1013       C  0.42983117  0.40670920  0.08924971    -0.00900
C1014       C  0.41887263  0.40972420  0.08535929    -0.10000
C1015       C  0.41783531  0.41513738  0.95450058     0.06400
H1016       H  0.43781715  0.40801795  0.97404765     0.08400
H1017       H  0.44492325  0.40366200  0.05032218     0.11800
H1018       H  0.41361121  0.41040360  0.11620148     0.12100
H1019       H  0.40628968  0.41448421  0.03972780     0.08400
C1020       C  0.41759552  0.40778855  0.91435504    -0.10700
C1021       C  0.41540914  0.41189543  0.87025616    -0.10000
C1022       C  0.41331703  0.42339198  0.86528280    -0.00900
C1023       C  0.41309390  0.43047854  0.90552317    -0.11100
C1024       C  0.41533313  0.42639913  0.94966680    -0.09500
H1025       H  0.41924410  0.39892134  0.91698324     0.08400
H1026       H  0.41552539  0.40616271  0.83995437     0.12100
H1027       H  0.41153661  0.43940310  0.90280509     0.11800
H1028       H  0.41560170  0.43237694  0.97981618     0.08400
C1029       C  0.39944454  0.31465454  0.33712777    -0.10700
C1030       C  0.41314272  0.31966442  0.32084840     0.06400
C1031       C  0.41962092  0.31158805  0.32809060    -0.09500
C1032       C  0.41219206  0.29835765  0.34920628    -0.11100
C1033       C  0.39827479  0.29316880  0.36391313    -0.00900
C1034       C  0.39213326  0.30161124  0.35863122    -0.10000
C1035       C  0.42038124  0.33322391  0.29585727     0.06400
H1036       H  0.43021159  0.31529394  0.31589631     0.08400
H1037       H  0.41715376  0.29204064  0.35267232     0.11800
H1038       H  0.38143569  0.29793440  0.36958908     0.12100
H1039       H  0.39431971  0.32080002  0.33275133     0.08400
C1040       C  0.41325234  0.33625528  0.26095793    -0.10700
C1041       C  0.41930212  0.34957663  0.24101928    -0.10000
C1042       C  0.43260880  0.36014153  0.25560207    -0.00900
C1043       C  0.44008394  0.35689226  0.28859560    -0.11100
C1044       C  0.43400632  0.34352035  0.30860662    -0.09500
H1045       H  0.40280770  0.32840154  0.25004546     0.08400
H1046       H  0.41333030  0.35176185  0.21550804     0.12100
H1047       H  0.45030590  0.36487932  0.30076300     0.11800
H1048       H  0.43965633  0.34142684  0.33561903     0.08400
C1049       C  0.35225359  0.25020508  0.61597902    -0.10700
C1050       C  0.33783376  0.24066366  0.62182655     0.06400
C1051       C  0.32983706  0.23356293  0.58237365    -0.09500
C1052       C  0.33607936  0.23584249  0.53842911    -0.11100
C1053       C  0.35048359  0.24521261  0.53277185    -0.00900
C1054       C  0.35852720  0.25238902  0.57200013    -0.10000
C1055       C  0.33123906  0.23767147  0.66898209     0.06400
H1056       H  0.31879655  0.22594019  0.58554913     0.08400
H1057       H  0.32963873  0.23005937  0.50893031     0.11800
H1058       H  0.36966278  0.25969279  0.56870440     0.12100
H1059       H  0.35871545  0.25602492  0.64538865     0.08400
C1060       C  0.33873353  0.23735407  0.70851709    -0.10700
C1061       C  0.33244534  0.23402889  0.75253375    -0.10000
C1062       C  0.31846079  0.23076126  0.75809512    -0.00900
C1063       C  0.31089591  0.23102270  0.71878848    -0.11100
C1064       C  0.31726172  0.23458171  0.67478061    -0.09500
H1065       H  0.34937181  0.23933238  0.70536845     0.08400
H1066       H  0.33844610  0.23368141  0.78213448     0.12100
H1067       H  0.30009158  0.22855324  0.72213416     0.11800
H1068       H  0.31121894  0.23492033  0.64530993     0.08400
C1069       C  0.32986887  0.23918197  0.20848130    -0.10700
C1070       C  0.33771379  0.24006880  0.16862152     0.06400
C1071       C  0.35174457  0.24342332  0.17447876    -0.09500
C1072       C  0.35771114  0.24559909  0.21900976    -0.11100
C1073       C  0.34983689  0.24449293  0.25892128    -0.00900
C1074       C  0.33587246  0.24140198  0.25318140    -0.10000
C1075       C  0.33122138  0.23692822  0.12125680     0.06400
H1076       H  0.35801632  0.24398237  0.14471447     0.08400
H1077       H  0.36850448  0.24797276  0.22217560     0.11800
H1078       H  0.32955712  0.24053317  0.28320638     0.12100
H1079       H  0.31906323  0.23675996  0.20511574     0.08400
C1080       C  0.31751797  0.22572286  0.11486121    -0.10700
C1081       C  0.31165788  0.22219424  0.07022391    -0.10000
C1082       C  0.31930567  0.22977732  0.03082709    -0.00900
C1083       C  0.33293091  0.24112744  0.03705056    -0.11100
C1084       C  0.33882851  0.24464915  0.08184882    -0.09500
H1085       H  0.31144554  0.21943905  0.14424151     0.08400
H1086       H  0.30110966  0.21339514  0.06659101     0.12100
H1087       H  0.33903727  0.24720127  0.00737724     0.11800
H1088       H  0.34936356  0.25345045  0.08566559     0.08400
C1089       C  0.84490189  0.71632461  0.92198336    -0.10700
C1090       C  0.84683433  0.70605987  0.89988383     0.06400
C1091       C  0.83561118  0.69559316  0.87419892    -0.09500
C1092       C  0.82251893  0.69468328  0.87384379    -0.11100
C1093       C  0.82033299  0.70438570  0.89827456    -0.00900
C1094       C  0.83175623  0.71553370  0.92095076    -0.10000
C1095       C  0.86004167  0.70552543  0.90570904     0.06400
H1096       H  0.83681644  0.68781856  0.85523632     0.08400
H1097       H  0.81396295  0.68610769  0.85538838     0.11800
H1098       H  0.83033711  0.72316615  0.94000208     0.12100
H1099       H  0.85330497  0.72454280  0.94201972     0.08400
C1100       C  0.87330490  0.71773749  0.90784135    -0.10700
C1101       C  0.88557536  0.71684888  0.91190257    -0.10000
C1102       C  0.88476767  0.70374270  0.91399917    -0.00900
C1103       C  0.87150715  0.69161662  0.91326268    -0.11100
C1104       C  0.85935025  0.69249062  0.90937914    -0.09500
H1105       H  0.87423109  0.72794922  0.90529608     0.08400
H1106       H  0.89566396  0.72637357  0.91291488     0.12100
H1107       H  0.87048189  0.68134925  0.91536971     0.11800
H1108       H  0.84935310  0.68285937  0.90956762     0.08400
C1109       C  0.72307357  0.73562689  0.99385035    -0.10700
C1110       C  0.73779702  0.74287100  0.99079804     0.06400
C1111       C  0.74517855  0.75718166  0.00212896    -0.09500
C1112       C  0.73796650  0.76399584  0.01660590    -0.11100
C1113       C  0.72325707  0.75659041  0.02020976    -0.00900
C1114       C  0.71594093  0.74235453  0.00859856    -0.10000
C1115       C  0.74520130  0.73527199  0.97668552     0.06400
H1116       H  0.75652822  0.76306525  0.00054151     0.08400
H1117       H  0.74386900  0.77500590  0.02498267     0.11800
H1118       H  0.70459088  0.73636036  0.01040453     0.12100
H1119       H  0.71696427  0.72472449  0.98428148     0.08400
C1120       C  0.73981751  0.72125963  0.99038130    -0.10700
C1121       C  0.74622260  0.71376989  0.97621886    -0.10000
C1122       C  0.75838124  0.72011455  0.94869097    -0.00900
C1123       C  0.76401035  0.73418441  0.93542951    -0.11100
C1124       C  0.75743157  0.74168797  0.94912193    -0.09500
H1125       H  0.73067975  0.71604319  0.01262921     0.08400
H1126       H  0.74172041  0.70299408  0.98754925     0.12100
H1127       H  0.77338655  0.73932416  0.91419960     0.11800
H1128       H  0.76179075  0.75241677  0.93753554     0.08400
C1129       C  0.49490764  0.52238365  0.77495726    -0.10700
C1130       C  0.48345484  0.52097789  0.74857279     0.06400
C1131       C  0.48497221  0.53262230  0.72319881    -0.09500
C1132       C  0.49790244  0.54515447  0.72235379    -0.11100
C1133       C  0.50953422  0.54621803  0.74669141    -0.00900
C1134       C  0.50778919  0.53481293  0.77385437    -0.10000
C1135       C  0.47042970  0.50709894  0.74512575     0.06400
H1136       H  0.47636656  0.53183922  0.70232758     0.08400
H1137       H  0.49897858  0.55376485  0.70094999     0.11800
H1138       H  0.51651878  0.53537377  0.79340320     0.12100
H1139       H  0.49399833  0.51371921  0.79566404     0.08400
C1140       C  0.47146726  0.49500668  0.73996239    -0.10700
C1141       C  0.45946108  0.48188705  0.73640413    -0.10000
C1142       C  0.44604150  0.48045087  0.73785504    -0.00900
C1143       C  0.44489956  0.49250454  0.74278837    -0.11100
C1144       C  0.45700280  0.50573178  0.74627205    -0.09500
H1145       H  0.48162741  0.49570058  0.73800302     0.08400
H1146       H  0.46072478  0.47283556  0.73232727     0.12100
H1147       H  0.43468391  0.49170552  0.74409254     0.11800
H1148       H  0.45587482  0.51485682  0.75042663     0.08400
C1149       C  0.60156080  0.67285034  0.60851584    -0.10700
C1150       C  0.58702645  0.66580596  0.61711668     0.06400
C1151       C  0.57955017  0.67279967  0.60682613    -0.09500
C1152       C  0.58649577  0.68649623  0.58872379    -0.11100
C1153       C  0.60102888  0.69343649  0.58030688    -0.00900
C1154       C  0.60841278  0.68637350  0.59006403    -0.10000
C1155       C  0.57995043  0.65126392  0.63663153     0.06400
H1156       H  0.56834083  0.66768331  0.61252384     0.08400
H1157       H  0.58053378  0.69170535  0.58184208     0.11800
H1158       H  0.61964224  0.69145088  0.58466362     0.12100
H1159       H  0.60780220  0.66804509  0.61702612     0.08400
C1160       C  0.58474269  0.64208774  0.62402602    -0.10700
C1161       C  0.57906874  0.62885952  0.64431221    -0.10000
C1162       C  0.56818427  0.62418664  0.67709805    -0.00900
C1163       C  0.56289975  0.63303243  0.68865242    -0.11100
C1164       C  0.56881315  0.64650644  0.66885370    -0.09500
H1165       H  0.59292566  0.64509829  0.59826343     0.08400
H1166       H  0.58315528  0.62217695  0.63376818     0.12100
H1167       H  0.55443952  0.62965204  0.71356378     0.11800
H1168       H  0.56488048  0.65329079  0.67962268     0.08400
C1169       C  0.64513868  0.74493775  0.76941792    -0.10700
C1170       C  0.65940824  0.75490927  0.77570711     0.06400
C1171       C  0.66751494  0.76155821  0.73566893    -0.09500
C1172       C  0.66146224  0.75843797  0.69094537    -0.11100
C1173       C  0.64712647  0.74878115  0.68524284    -0.00900
C1174       C  0.63906560  0.74203010  0.72492588    -0.10000
C1175       C  0.66568622  0.75844081  0.82375135     0.06400
H1176       H  0.67847746  0.76941718  0.73881372     0.08400
H1177       H  0.66792760  0.76380398  0.66093988     0.11800
H1178       H  0.62802990  0.73436196  0.72154343     0.12100
H1179       H  0.63859773  0.73926107  0.79888940     0.08400
C1180       C  0.65758535  0.75797185  0.86250395    -0.10700
C1181       C  0.66342389  0.76120992  0.90747592    -0.10000
C1182       C  0.67758598  0.76532035  0.91471910    -0.00900
C1183       C  0.68573140  0.76589805  0.87623925    -0.11100
C1184       C  0.67983810  0.76237350  0.83147769    -0.09500
H1185       H  0.64675521  0.75530992  0.85813919     0.08400
H1186       H  0.65692993  0.76076499  0.93645823     0.12100
H1187       H  0.69665270  0.76887395  0.88089858     0.11800
H1188       H  0.68638364  0.76258902  0.80305098     0.08400
C1189       C  0.68058633  0.76146837  0.27513382    -0.10700
C1190       C  0.66653379  0.75065744  0.27931939     0.06400
C1191       C  0.65928902  0.74372723  0.23847321    -0.09500
C1192       C  0.66570769  0.74782012  0.19465751    -0.11100
C1193       C  0.67959624  0.75885861  0.19046533    -0.00900
C1194       C  0.68704774  0.76546517  0.23130637    -0.10000
C1195       C  0.65930516  0.74702322  0.32564222     0.06400
H1196       H  0.64858464  0.73515120  0.24021089     0.08400
H1197       H  0.65970794  0.74245526  0.16392760     0.11800
H1198       H  0.69775844  0.77404196  0.22928750     0.12100
H1199       H  0.68648692  0.76720617  0.30552755     0.08400
C1200       C  0.66669491  0.74802576  0.36712134    -0.10700
C1201       C  0.66005003  0.74537048  0.41060534    -0.10000
C1202       C  0.64580947  0.74148576  0.41370007    -0.00900
C1203       C  0.63831506  0.74013010  0.37235402    -0.11100
C1204       C  0.64498327  0.74293939  0.32894753    -0.09500
H1205       H  0.67764422  0.75088081  0.36609485     0.08400
H1206       H  0.66609818  0.74646445  0.44186148     0.12100
H1207       H  0.62735574  0.73726911  0.37359751     0.11800
H1208       H  0.63896797  0.74230190  0.29808165     0.08400
C1209       C  0.52762582  0.49088546  0.17788109    -0.10700
C1210       C  0.52660941  0.47920281  0.20141557     0.06400
C1211       C  0.53852720  0.48058204  0.22484605    -0.09500
C1212       C  0.55099951  0.49352801  0.22624336    -0.11100
C1213       C  0.55173875  0.50531239  0.20436423    -0.00900
C1214       C  0.54000596  0.50377104  0.17946143    -0.10000
C1215       C  0.51291701  0.46593425  0.20359097     0.06400
H1216       H  0.53804018  0.47180119  0.24363143     0.08400
H1217       H  0.55986205  0.49443552  0.24587650     0.11800
H1218       H  0.54028820  0.51263053  0.16187980     0.12100
H1219       H  0.51874810  0.49011794  0.15872953     0.08400
C1220       C  0.50045809  0.46632218  0.21009510    -0.10700
C1221       C  0.48757243  0.45398630  0.21359932    -0.10000
C1222       C  0.48678340  0.44091678  0.21079957    -0.00900
C1223       C  0.49917452  0.44045599  0.20369189    -0.11100
C1224       C  0.51213283  0.45285846  0.20021739    -0.09500
H1225       H  0.50069037  0.47619293  0.21354310     0.08400
H1226       H  0.47821801  0.45470960  0.21905051     0.12100
H1227       H  0.49886219  0.43052843  0.20110866     0.11800
H1228       H  0.52152949  0.45222715  0.19467513     0.08400
C1229       C  0.57561562  0.57184736  0.41781489    -0.10700
C1230       C  0.56535369  0.56079170  0.44463724     0.06400
C1231       C  0.55789682  0.54741278  0.42497544    -0.09500
C1232       C  0.56100840  0.54503851  0.37984285    -0.11100
C1233       C  0.57138435  0.55605849  0.35316117    -0.00900
C1234       C  0.57849925  0.56954278  0.37225535    -0.10000
C1235       C  0.56275345  0.56314868  0.49349886     0.06400
H1236       H  0.54999556  0.53872664  0.44511065     0.08400
H1237       H  0.55543211  0.53452590  0.36600899     0.11800
H1238       H  0.58666193  0.57817584  0.35266851     0.12100
H1239       H  0.58145922  0.58226316  0.43229591     0.08400
C1240       C  0.57395662  0.56945427  0.52529824    -0.10700
C1241       C  0.57162927  0.57186371  0.57137122    -0.10000
C1242       C  0.55808982  0.56824282  0.58630010    -0.00900
C1243       C  0.54685858  0.56190494  0.55445109    -0.11100
C1244       C  0.54915073  0.55922937  0.50859567    -0.09500
H1245       H  0.58451665  0.57247463  0.51445181     0.08400
H1246       H  0.58048428  0.57686537  0.59502173     0.12100
H1247       H  0.53631595  0.55906687  0.56495280     0.11800
H1248       H  0.54036479  0.55439125  0.48458855     0.08400
C1249       C  0.56885130  0.57961589  0.94387270    -0.10700
C1250       C  0.57894231  0.57539740  0.94837054     0.06400
C1251       C  0.58471833  0.57338642  0.90735707    -0.09500
C1252       C  0.58033850  0.57532963  0.86317613    -0.11100
C1253       C  0.57014594  0.57941072  0.85892865    -0.00900
C1254       C  0.56454946  0.58162936  0.89982542    -0.10000
C1255       C  0.58281727  0.57244107  0.99555400     0.06400
H1256       H  0.59261164  0.57028138  0.90935910     0.08400
H1257       H  0.58484197  0.57351286  0.83234352     0.11800
H1258       H  0.55656841  0.58462423  0.89782795     0.12100
H1259       H  0.56392227  0.58097124  0.97444507     0.08400
C1260       C  0.58346014  0.58038857  0.03473604    -0.10700
C1261       C  0.58567147  0.57668213  0.07964075    -0.10000
C1262       C  0.58750508  0.56507746  0.08635777    -0.00900
C1263       C  0.58748148  0.55751336  0.04711403    -0.11100
C1264       C  0.58509594  0.56109615  0.00236114    -0.09500
H1265       H  0.58204112  0.58936070  0.03081141     0.08400
H1266       H  0.58571599  0.58276118  0.10919777     0.12100
H1267       H  0.58872897  0.54843686  0.05119450     0.11800
H1268       H  0.58447447  0.55459207  0.97333116     0.08400
C1269       C  0.80030366  0.62428092  0.47336419    -0.10700
C1270       C  0.80213960  0.61465202  0.44689502     0.06400
C1271       C  0.79068169  0.60456853  0.42082061    -0.09500
C1272       C  0.77796827  0.60469389  0.41918134    -0.11100
C1273       C  0.77659857  0.61498761  0.44319534    -0.00900
C1274       C  0.78775911  0.62453022  0.47116406    -0.10000
C1275       C  0.81629974  0.61599752  0.44399279     0.06400
H1276       H  0.79176724  0.59704147  0.39990925     0.08400
H1277       H  0.76952182  0.59727139  0.39717436     0.11800
H1278       H  0.78690657  0.63246438  0.49050480     0.12100
H1279       H  0.80875515  0.63193644  0.49481262     0.08400
C1280       C  0.82828537  0.62935225  0.44096972    -0.10700
C1281       C  0.84166585  0.63094398  0.43799631    -0.10000
C1282       C  0.84349942  0.61923268  0.43774476    -0.00900
C1283       C  0.83155503  0.60583017  0.44058427    -0.11100
C1284       C  0.81807138  0.60422476  0.44355434    -0.09500
H1285       H  0.82732166  0.63864257  0.44013762     0.08400
H1286       H  0.85060697  0.64141892  0.43554658     0.12100
H1287       H  0.83263386  0.59660836  0.44042544     0.11800
H1288       H  0.80905799  0.59379966  0.44601108     0.08400
C1289       C  0.67679443  0.57420353  0.36321567    -0.10700
C1290       C  0.66908704  0.58096251  0.35304219     0.06400
C1291       C  0.67560116  0.59547397  0.36040769    -0.09500
C1292       C  0.68940862  0.60303754  0.37660190    -0.11100
C1293       C  0.69722421  0.59638051  0.38576916    -0.00900
C1294       C  0.69072730  0.58184188  0.37932737    -0.10000
C1295       C  0.65453670  0.57325918  0.33326251     0.06400
H1296       H  0.67019442  0.60116166  0.35221094     0.08400
H1297       H  0.69407357  0.61422135  0.38093847     0.11800
H1298       H  0.69646537  0.57640087  0.38617705     0.12100
H1299       H  0.67208418  0.56303411  0.35859218     0.08400
C1300       C  0.65053429  0.56249795  0.30021404    -0.10700
C1301       C  0.63736975  0.55658798  0.27782236    -0.10000
C1302       C  0.62803746  0.56142834  0.28792321    -0.00900
C1303       C  0.63180549  0.57165051  0.32252583    -0.11100
C1304       C  0.64476098  0.57738815  0.34504809    -0.09500
H1305       H  0.65778334  0.55903592  0.29020684     0.08400
H1306       H  0.63469238  0.54860709  0.25173259     0.12100
H1307       H  0.62474091  0.57539388  0.33207795     0.11800
H1308       H  0.64719285  0.58526390  0.37132784     0.08400
C1309       C  0.74581751  0.65408001  0.73433016    -0.10700
C1310       C  0.75156586  0.66183236  0.69291458     0.06400
C1311       C  0.76070233  0.67635802  0.69687648    -0.09500
C1312       C  0.76431975  0.68280914  0.74067392    -0.11100
C1313       C  0.75904322  0.67493902  0.78192874    -0.00900
C1314       C  0.74954438  0.66053262  0.77820039    -0.10000
C1315       C  0.74850774  0.65478556  0.64614129     0.06400
H1316       H  0.76553580  0.68274350  0.66624879     0.08400
H1317       H  0.77167728  0.69393462  0.74224428     0.11800
H1318       H  0.74521470  0.65417441  0.80926694     0.12100
H1319       H  0.73848495  0.64295930  0.73302382     0.08400
C1320       C  0.74623049  0.64109303  0.64190569    -0.10700
C1321       C  0.74388380  0.63467229  0.59816751    -0.10000
C1322       C  0.74390630  0.64178086  0.55719678    -0.00900
C1323       C  0.74609848  0.65540857  0.56116301    -0.11100
C1324       C  0.74827446  0.66178423  0.60499506    -0.09500
H1325       H  0.74662557  0.63540127  0.67226505     0.08400
H1326       H  0.74239209  0.62421951  0.59635220     0.12100
H1327       H  0.74618090  0.66118200  0.53030856     0.11800
H1328       H  0.74972913  0.67221419  0.60649355     0.08400
C1329       C  0.75073784  0.64187587  0.20009536    -0.10700
C1330       C  0.76059966  0.65618191  0.19413720     0.06400
C1331       C  0.76712008  0.66411405  0.23451448    -0.09500
C1332       C  0.76375833  0.65795358  0.27906023    -0.11100
C1333       C  0.75410749  0.64365249  0.28432582    -0.00900
C1334       C  0.74772784  0.63567584  0.24437151    -0.10000
C1335       C  0.76390788  0.66269345  0.14622598     0.06400
H1336       H  0.77497535  0.67505415  0.23201298     0.08400
H1337       H  0.76888179  0.66433411  0.30934508     0.11800
H1338       H  0.74010552  0.62464719  0.24741950     0.12100
H1339       H  0.74504945  0.63537345  0.17073633     0.08400
C1340       C  0.76208249  0.65454997  0.10620696    -0.10700
C1341       C  0.76459944  0.66045876  0.06137762    -0.10000
C1342       C  0.76949290  0.67476444  0.05526808    -0.00900
C1343       C  0.77164989  0.68302318  0.09488970    -0.11100
C1344       C  0.76872733  0.67705573  0.13965321    -0.09500
H1345       H  0.75885361  0.64359011  0.10914398     0.08400
H1346       H  0.76295043  0.65386097  0.03148114     0.12100
H1347       H  0.77530501  0.69408449  0.09119565     0.11800
H1348       H  0.77001417  0.68374812  0.16884625     0.08400
C1349       C  0.62870542  0.82269493  0.55392344    -0.10700
C1350       C  0.61624523  0.81088718  0.53914632     0.06400
C1351       C  0.60458227  0.81239750  0.52812578    -0.09500
C1352       C  0.60561154  0.82560053  0.52999670    -0.11100
C1353       C  0.61829354  0.83746073  0.54316304    -0.00900
C1354       C  0.62972259  0.83577662  0.55583839    -0.10000
C1355       C  0.61590185  0.79731194  0.53399283     0.06400
H1356       H  0.59483603  0.80347444  0.51673705     0.08400
H1357       H  0.59659737  0.82657122  0.52039389     0.11800
H1358       H  0.63958351  0.84463599  0.56682147     0.12100
H1359       H  0.63776780  0.82183076  0.56377219     0.08400
C1360       C  0.62749031  0.79716795  0.51433413    -0.10700
C1361       C  0.62821781  0.78493522  0.51370398    -0.10000
C1362       C  0.61734764  0.77242560  0.53249794    -0.00900
C1363       C  0.60535430  0.77229363  0.54998418    -0.11100
C1364       C  0.60462292  0.78465688  0.55062087    -0.09500
H1365       H  0.63619008  0.80664927  0.50018289     0.08400
H1366       H  0.63753814  0.78538957  0.49945928     0.12100
H1367       H  0.59681458  0.76280206  0.56468925     0.11800
H1368       H  0.59554214  0.78445397  0.56589816     0.08400
C1369       C  0.56289324  0.91167646  0.64898288    -0.10700
C1370       C  0.57728228  0.91615887  0.64610157     0.06400
C1371       C  0.58693923  0.92870188  0.66792544    -0.09500
C1372       C  0.58244927  0.93701827  0.68979164    -0.11100
C1373       C  0.56815876  0.93301429  0.69036053    -0.00900
C1374       C  0.55837076  0.92007802  0.67080907    -0.10000
C1375       C  0.58256267  0.90837985  0.61869024     0.06400
H1376       H  0.59807462  0.93226062  0.66708025     0.08400
H1377       H  0.59025284  0.94686325  0.70470620     0.11800
H1378       H  0.54728521  0.91673764  0.67060140     0.12100
H1379       H  0.55524059  0.90203419  0.63255763     0.08400
C1380       C  0.57723235  0.89395354  0.62502442    -0.10700
C1381       C  0.58392466  0.88736203  0.60415679    -0.10000
C1382       C  0.59597089  0.89512265  0.57653834    -0.00900
C1383       C  0.60050662  0.90925297  0.56735867    -0.11100
C1384       C  0.59388941  0.91578766  0.58813698    -0.09500
H1385       H  0.56844032  0.88798677  0.64817725     0.08400
H1386       H  0.58018398  0.87644127  0.61178998     0.12100
H1387       H  0.60963047  0.91547601  0.54577741     0.11800
H1388       H  0.59798024  0.92683207  0.58169807     0.08400
C1389       C  0.57847132  0.99452524  0.40804138    -0.10700
C1390       C  0.57963495  0.00249557  0.44771675     0.06400
C1391       C  0.58363889  0.01664510  0.44155845    -0.09500
C1392       C  0.58627829  0.02262931  0.39701436    -0.11100
C1393       C  0.58498837  0.01465204  0.35739984    -0.00900
C1394       C  0.58113186  0.00054270  0.36331927    -0.10000
C1395       C  0.57631360  0.99608937  0.49526086     0.06400
H1396       H  0.58442591  0.02304594  0.47107685     0.08400
H1397       H  0.58927728  0.03355618  0.39363602     0.11800
H1398       H  0.58012154  0.99416671  0.33344724     0.12100
H1399       H  0.57558887  0.98363612  0.41154641     0.08400
C1400       C  0.56510996  0.98240707  0.50193413    -0.10700
C1401       C  0.56157465  0.97659761  0.54672163    -0.10000
C1402       C  0.56915833  0.98427733  0.58595557    -0.00900
C1403       C  0.58043493  0.99790016  0.57945913    -0.11100
C1404       C  0.58396740  0.00373766  0.53458675    -0.09500
H1405       H  0.55884765  0.97628975  0.47267796     0.08400
H1406       H  0.55282055  0.96605024  0.55060961     0.12100
H1407       H  0.58646636  0.00405388  0.60902289     0.11800
H1408       H  0.59277895  0.01424533  0.53069936     0.08400
C1409       C  0.58720896  0.01789910  0.99930799    -0.10700
C1410       C  0.58368640  0.00383941  0.99464173     0.06400
C1411       C  0.58366058  0.99643428  0.03491180    -0.09500
C1412       C  0.58667973  0.00279035  0.07883708    -0.11100
C1413       C  0.58985915  0.01672885  0.08354710    -0.00900
C1414       C  0.59026360  0.02426019  0.04319955    -0.10000
C1415       C  0.57962731  0.99682860  0.94826257     0.06400
H1416       H  0.58124397  0.98567539  0.03251833     0.08400
H1417       H  0.58633369  0.99672511  0.10921080     0.11800
H1418       H  0.59260972  0.03499992  0.04565509     0.12100
H1419       H  0.58718221  0.02388204  0.96921085     0.08400
C1420       C  0.56858884  0.98292605  0.94447579    -0.10700
C1421       C  0.56451375  0.97644799  0.90086960    -0.10000
C1422       C  0.57138016  0.98370214  0.85997864    -0.00900
C1423       C  0.58239526  0.99758170  0.86365106    -0.11100
C1424       C  0.58649028  0.00405420  0.90725612    -0.09500
H1425       H  0.56289034  0.97712828  0.97516182     0.08400
H1426       H  0.55587246  0.96578971  0.89914712     0.12100
H1427       H  0.58785263  0.00346273  0.83277070     0.11800
H1428       H  0.59511544  0.01471269  0.90886361     0.08400
C1429       C  0.81120394  0.17063286  0.40965332    -0.10700
C1430       C  0.81109976  0.18259384  0.42541669     0.06400
C1431       C  0.79810115  0.18163631  0.43497145    -0.09500
C1432       C  0.78553654  0.16884795  0.43013872    -0.11100
C1433       C  0.78579088  0.15684674  0.41562899    -0.00900
C1434       C  0.79875853  0.15795664  0.40497787    -0.10000
C1435       C  0.82463748  0.19589357  0.43103185     0.06400
H1436       H  0.79767269  0.19067442  0.44707480     0.08400
H1437       H  0.77567907  0.16829720  0.43843028     0.11800
H1438       H  0.79933300  0.14896767  0.39313216     0.12100
H1439       H  0.82095952  0.17106770  0.40058059     0.08400
C1440       C  0.83651425  0.19556345  0.44778752    -0.10700
C1441       C  0.84974645  0.20751366  0.44637268    -0.10000
C1442       C  0.85143971  0.22016070  0.42872796    -0.00900
C1443       C  0.83947317  0.22084070  0.41539751    -0.11100
C1444       C  0.82616521  0.20878103  0.41642532    -0.09500
H1445       H  0.83564619  0.18591825  0.46069792     0.08400
H1446       H  0.85873790  0.20672822  0.45780893     0.12100
H1447       H  0.84048217  0.23049733  0.40199112     0.11800
H1448       H  0.81721969  0.20939551  0.40345144     0.08400
C1449       C  0.65508583  0.08506189  0.30073071    -0.10700
C1450       C  0.66422570  0.07960939  0.30306222     0.06400
C1451       C  0.66014980  0.06674730  0.28145588    -0.09500
C1452       C  0.64703910  0.05917821  0.26011495    -0.11100
C1453       C  0.63761114  0.06425818  0.25965298    -0.00900
C1454       C  0.64186273  0.07741989  0.27934335    -0.10000
C1455       C  0.67780933  0.08688133  0.32886652     0.06400
H1456       H  0.66707286  0.06241132  0.28152686     0.08400
H1457       H  0.64413492  0.04911663  0.24513265     0.11800
H1458       H  0.63480153  0.08159334  0.27957967     0.12100
H1459       H  0.65793096  0.09495015  0.31696485     0.08400
C1460       C  0.68684753  0.10142233  0.32511672    -0.10700
C1461       C  0.70026707  0.10777389  0.34560008    -0.10000
C1462       C  0.70482810  0.09968506  0.37023926    -0.00900
C1463       C  0.69546507  0.08531343  0.37605819    -0.11100
C1464       C  0.68214204  0.07902043  0.35584553    -0.09500
H1465       H  0.68380539  0.10776356  0.30460048     0.08400
H1466       H  0.70727752  0.11887043  0.34039591     0.12100
H1467       H  0.69859230  0.07879411  0.39511671     0.11800
H1468       H  0.67530658  0.06787024  0.36052022     0.08400
C1469       C  0.84119925  0.13655203  0.90528383    -0.10700
C1470       C  0.85264458  0.13534689  0.88997946     0.06400
C1471       C  0.85060776  0.12193929  0.88099471    -0.09500
C1472       C  0.83716799  0.11006420  0.88511423    -0.11100
C1473       C  0.82564177  0.11146942  0.89852980    -0.00900
C1474       C  0.82791057  0.12481678  0.90934173    -0.10000
C1475       C  0.86639285  0.14828992  0.88261991     0.06400
H1476       H  0.85928133  0.12070405  0.86943171     0.08400
H1477       H  0.83573520  0.09988124  0.87685489     0.11800
H1478       H  0.81933420  0.12626022  0.92056604     0.12100
H1479       H  0.84250735  0.14667520  0.91375967     0.08400
C1480       C  0.86676296  0.15992066  0.86079689    -0.10700
C1481       C  0.87911537  0.17285007  0.85979759    -0.10000
C1482       C  0.89145832  0.17448081  0.88045475    -0.00900
C1483       C  0.89139529  0.16264156  0.89930991    -0.11100
C1484       C  0.87895117  0.14963232  0.90039183    -0.09500
H1485       H  0.85731919  0.15911716  0.84581426     0.08400
H1486       H  0.87884727  0.18170655  0.84439733     0.12100
H1487       H  0.90077681  0.16358405  0.91529338     0.11800
H1488       H  0.87898174  0.14084120  0.91729902     0.08400
C1489       C  0.75092654  0.10014636  0.62742940    -0.10700
C1490       C  0.75602327  0.09075464  0.63212753     0.06400
C1491       C  0.75810044  0.08500421  0.59128757    -0.09500
C1492       C  0.75583481  0.08904235  0.54709863    -0.11100
C1493       C  0.75127794  0.09882553  0.54253828    -0.00900
C1494       C  0.74854245  0.10408614  0.58320213    -0.10000
C1495       C  0.75974494  0.08744692  0.67906049     0.06400
H1496       H  0.76161492  0.07744132  0.59334756     0.08400
H1497       H  0.75787333  0.08466260  0.51646104     0.11800
H1498       H  0.74496162  0.11160200  0.58085966     0.12100
H1499       H  0.74927259  0.10489543  0.65781911     0.08400
C1500       C  0.77125467  0.08525712  0.68421134    -0.10700
C1501       C  0.77504398  0.08253654  0.72813591    -0.10000
C1502       C  0.76757015  0.08212968  0.76827228    -0.00900
C1503       C  0.75605351  0.08425599  0.76336389    -0.11100
C1504       C  0.75214557  0.08681597  0.71930731    -0.09500
H1505       H  0.77759505  0.08597342  0.65443871     0.08400
H1506       H  0.78405651  0.08106759  0.73078440     0.12100
H1507       H  0.75006317  0.08395779  0.79363554     0.11800
H1508       H  0.74310997  0.08823501  0.71685485     0.08400
C1509       C  0.75968793  0.10710672  0.18569736    -0.10700
C1510       C  0.76391694  0.09710069  0.18055467     0.06400
C1511       C  0.76517814  0.09040029  0.22085447    -0.09500
C1512       C  0.76223981  0.09361808  0.26511830    -0.11100
C1513       C  0.75801062  0.10362510  0.26996476    -0.00900
C1514       C  0.75677676  0.11031667  0.22978020    -0.10000
C1515       C  0.76703331  0.09378811  0.13329110     0.06400
H1516       H  0.76825778  0.08252437  0.21815349     0.08400
H1517       H  0.76328881  0.08830056  0.29547792     0.11800
H1518       H  0.75357285  0.11810809  0.23234994     0.12100
H1519       H  0.75883599  0.11265172  0.15566213     0.08400
C1520       C  0.77819289  0.09120775  0.12657931    -0.10700
C1521       C  0.78119798  0.08828144  0.08205641    -0.10000
C1522       C  0.77314286  0.08788272  0.04314040    -0.00900
C1523       C  0.76200955  0.09047626  0.04974292    -0.11100
C1524       C  0.75897844  0.09336857  0.09427767    -0.09500
H1525       H  0.78474792  0.09165374  0.15561573     0.08400
H1526       H  0.78986920  0.08634329  0.07812021     0.12100
H1527       H  0.75557193  0.09017337  0.02053144     0.11800
H1528       H  0.75017254  0.09509353  0.09820760     0.08400
C1529       C  0.71762887  0.87049602  0.07280938    -0.10700
C1530       C  0.70611850  0.85732519  0.06194984     0.06400
C1531       C  0.69352277  0.85652356  0.04719864    -0.09500
C1532       C  0.69227941  0.86846580  0.04474207    -0.11100
C1533       C  0.70363851  0.88160712  0.05653990    -0.00900
C1534       C  0.71638410  0.88254513  0.07025477    -0.10000
C1535       C  0.70677353  0.84424623  0.06719063     0.06400
H1536       H  0.68455168  0.84659049  0.03757617     0.08400
H1537       H  0.68234695  0.86736873  0.03362358     0.11800
H1538       H  0.72531805  0.89254518  0.07944250     0.12100
H1539       H  0.72744801  0.87142235  0.08437920     0.08400
C1540       C  0.71830941  0.84320027  0.05128826    -0.10700
C1541       C  0.71781393  0.83021624  0.05166665    -0.10000
C1542       C  0.70576469  0.81815318  0.06786692    -0.00900
C1543       C  0.69470880  0.81948206  0.08640563    -0.11100
C1544       C  0.69522583  0.83232879  0.08622470    -0.09500
H1545       H  0.72739558  0.85224354  0.03667127     0.08400
H1546       H  0.72653388  0.82950076  0.03746633     0.12100
H1547       H  0.68540040  0.81045586  0.10003531     0.11800
H1548       H  0.68637097  0.83286657  0.10009446     0.08400
C1549       C  0.65667421  0.90239905  0.85919289    -0.10700
C1550       C  0.66459278  0.90315293  0.81969775     0.06400
C1551       C  0.67865579  0.90665413  0.82609272    -0.09500
C1552       C  0.68460815  0.90925546  0.87080665    -0.11100
C1553       C  0.67670453  0.90852163  0.91023793    -0.00900
C1554       C  0.66265817  0.90507479  0.90394578    -0.10000
C1555       C  0.65810081  0.89991240  0.77225604     0.06400
H1556       H  0.68498662  0.90712585  0.79661823     0.08400
H1557       H  0.69545982  0.91185519  0.87446578     0.11800
H1558       H  0.65629909  0.90443081  0.93357049     0.12100
H1559       H  0.64584284  0.89985754  0.85545596     0.08400
C1560       C  0.64435630  0.88875153  0.76616802    -0.10700
C1561       C  0.63820387  0.88546526  0.72189045    -0.10000
C1562       C  0.64561484  0.89319120  0.68237743    -0.00900
C1563       C  0.65935547  0.90440933  0.68820003    -0.11100
C1564       C  0.66553804  0.90772278  0.73272634    -0.09500
H1565       H  0.63842160  0.88237369  0.79559526     0.08400
H1566       H  0.62762142  0.87670499  0.71859879     0.12100
H1567       H  0.66530597  0.91057745  0.65843485     0.11800
H1568       H  0.67610951  0.91648047  0.73628096     0.08400
C1569       C  0.65625672  0.89924998  0.23287282    -0.10700
C1570       C  0.66403718  0.90601995  0.27317775     0.06400
C1571       C  0.67828815  0.91624706  0.26770622    -0.09500
C1572       C  0.68457845  0.91942202  0.22354255    -0.11100
C1573       C  0.67674029  0.91264567  0.18354285    -0.00900
C1574       C  0.66248707  0.90262634  0.18868158    -0.10000
C1575       C  0.65734033  0.90236367  0.32048682     0.06400
H1576       H  0.68463220  0.92193237  0.29745858     0.08400
H1577       H  0.69560335  0.92717543  0.22071764     0.11800
H1578       H  0.65621651  0.89706846  0.15860306     0.12100
H1579       H  0.64539389  0.89108136  0.23533367     0.08400
C1580       C  0.64294069  0.89775094  0.32602112    -0.10700
C1581       C  0.63661972  0.89401181  0.37007372    -0.10000
C1582       C  0.64456832  0.89503166  0.40993181    -0.00900
C1583       C  0.65896527  0.89986190  0.40479163    -0.11100
C1584       C  0.66524124  0.90334149  0.36066888    -0.09500
H1585       H  0.63649698  0.89712117  0.29640292     0.08400
H1586       H  0.62549962  0.89035414  0.37294925     0.12100
H1587       H  0.66534026  0.90061582  0.43481514     0.11800
H1588       H  0.67624293  0.90651094  0.35814666     0.08400
C1589       C  0.76372141  0.01059400  0.94643952    -0.10700
C1590       C  0.75064804  0.00453563  0.96919889     0.06400
C1591       C  0.74464871  0.01290720  0.97815407    -0.09500
C1592       C  0.75118069  0.02677832  0.96334925    -0.11100
C1593       C  0.76403302  0.03282063  0.93959573    -0.00900
C1594       C  0.77038953  0.02466966  0.93176331    -0.10000
C1595       C  0.74260938  0.98942043  0.98179865     0.06400
H1596       H  0.73475915  0.00865833  0.99650043     0.08400
H1597       H  0.74612969  0.03282192  0.97082264     0.11800
H1598       H  0.78035283  0.02910197  0.91380388     0.12100
H1599       H  0.76857568  0.00437008  0.93899290     0.08400
C1600       C  0.72815906  0.98188273  0.97223481    -0.10700
C1601       C  0.71995972  0.96808992  0.98712092    -0.10000
C1602       C  0.72593239  0.96127950  0.01167108    -0.00900
C1603       C  0.74050743  0.96859093  0.02014076    -0.11100
C1604       C  0.74879578  0.98258760  0.00529390    -0.09500
H1605       H  0.72312525  0.98673653  0.95339981     0.08400
H1606       H  0.70883423  0.96273009  0.97922482     0.12100
H1607       H  0.74541854  0.96358132  0.03874380     0.11800
H1608       H  0.75991728  0.98816822  0.01325719     0.08400
C1609       C  0.30149735  0.13407192  0.85520000    -0.10700
C1610       C  0.28996106  0.13463409  0.87342139     0.06400
C1611       C  0.27839009  0.12223436  0.89012794    -0.09500
C1612       C  0.27872045  0.10969701  0.89087850    -0.11100
C1613       C  0.29063542  0.10939918  0.87499537    -0.00900
C1614       C  0.30187018  0.12164823  0.85628167    -0.10000
C1615       C  0.29064619  0.14834925  0.87808929     0.06400
H1616       H  0.26937264  0.12235687  0.90452502     0.08400
H1617       H  0.26990877  0.10039283  0.90544916     0.11800
H1618       H  0.31112405  0.12171409  0.84321867     0.12100
H1619       H  0.31042256  0.14335597  0.84100627     0.08400
C1620       C  0.30325339  0.16004476  0.89246990    -0.10700
C1621       C  0.30424866  0.17305060  0.89691921    -0.10000
C1622       C  0.29265410  0.17473987  0.88719320    -0.00900
C1623       C  0.27993806  0.16305460  0.87343248    -0.11100
C1624       C  0.27892852  0.14993881  0.86901102    -0.09500
H1625       H  0.31237803  0.15912507  0.90081218     0.08400
H1626       H  0.31418117  0.18182474  0.90781895     0.12100
H1627       H  0.27084071  0.16407911  0.86570638     0.11800
H1628       H  0.26908667  0.14111587  0.85777195     0.08400
C1629       C  0.16043384  0.86724158  0.13658921    -0.10700
C1630       C  0.14988957  0.86459865  0.10355394     0.06400
C1631       C  0.15181082  0.87538785  0.07269014    -0.09500
C1632       C  0.16440864  0.88818276  0.07273601    -0.11100
C1633       C  0.17532841  0.89035061  0.10336477    -0.00900
C1634       C  0.17303683  0.87995197  0.13635574    -0.10000
C1635       C  0.13750709  0.85032458  0.09912967     0.06400
H1636       H  0.14391436  0.87367920  0.04675378     0.08400
H1637       H  0.16591953  0.89602991  0.04690728     0.11800
H1638       H  0.18121767  0.88141740  0.16078347     0.12100
H1639       H  0.15912317  0.85928964  0.16167908     0.08400
C1640       C  0.13923275  0.83858105  0.10340991    -0.10700
C1641       C  0.12780805  0.82511572  0.09850359    -0.10000
C1642       C  0.11432783  0.82300770  0.08933839    -0.00900
C1643       C  0.11253811  0.83470207  0.08473154    -0.11100
C1644       C  0.12404316  0.84824999  0.08935570    -0.09500
H1645       H  0.14949820  0.83979365  0.10980639     0.08400
H1646       H  0.12954662  0.81632331  0.10203320     0.12100
H1647       H  0.10227490  0.83337803  0.07736320     0.11800
H1648       H  0.12237883  0.85708494  0.08585966     0.08400
C1649       C  0.23956870  0.99009042  0.03698544    -0.10700
C1650       C  0.23577941  0.99136094  0.99101771     0.06400
C1651       C  0.22592637  0.97929429  0.96736400    -0.09500
C1652       C  0.22040951  0.96613405  0.98868165    -0.11100
C1653       C  0.22491055  0.96483348  0.03358863    -0.00900
C1654       C  0.23427013  0.97695418  0.05790804    -0.10000
C1655       C  0.24316331  0.00513643  0.96711965     0.06400
H1656       H  0.22280584  0.98002101  0.93194899     0.08400
H1657       H  0.21326855  0.95693785  0.96903690     0.11800
H1658       H  0.23794537  0.97624666  0.09246955     0.12100
H1659       H  0.24724317  0.99920777  0.05580998     0.08400
C1660       C  0.24522591  0.01720352  0.99004994    -0.10700
C1661       C  0.25409347  0.03044611  0.97109918    -0.10000
C1662       C  0.26125376  0.03189658  0.92912100    -0.00900
C1663       C  0.25871414  0.01980504  0.90506878    -0.11100
C1664       C  0.24963533  0.00652502  0.92367684    -0.09500
H1665       H  0.24032368  0.01639429  0.02352714     0.08400
H1666       H  0.25590856  0.03956596  0.99053025     0.12100
H1667       H  0.26411230  0.02062173  0.87265462     0.11800
H1668       H  0.24832083  0.99738805  0.90551687     0.08400
C1669       C  0.36724424  0.19010452  0.37183866    -0.10700
C1670       C  0.37605821  0.18822436  0.40314938     0.06400
C1671       C  0.38516041  0.19947455  0.43187949    -0.09500
C1672       C  0.38503317  0.21213651  0.43024391    -0.11100
C1673       C  0.37570981  0.21363390  0.40019741    -0.00900
C1674       C  0.36696755  0.20255130  0.37076144    -0.10000
C1675       C  0.37527382  0.17437664  0.40583451     0.06400
H1676       H  0.39206343  0.19836011  0.45645497     0.08400
H1677       H  0.39186448  0.22055083  0.45335596     0.11800
H1678       H  0.35982753  0.20348402  0.34673051     0.12100
H1679       H  0.36044581  0.18188766  0.34807831     0.08400
C1680       C  0.36222979  0.16210104  0.40048480    -0.10700
C1681       C  0.36131074  0.14906854  0.39917371    -0.10000
C1682       C  0.37337619  0.14786746  0.40385619    -0.00900
C1683       C  0.38641501  0.16004201  0.41072841    -0.11100
C1684       C  0.38735731  0.17319765  0.41176446    -0.09500
H1685       H  0.35264593  0.16254055  0.39712364     0.08400
H1686       H  0.35108364  0.13990090  0.39421656     0.12100
H1687       H  0.39588319  0.15941298  0.41463737     0.11800
H1688       H  0.39756624  0.18244266  0.41582474     0.08400
C1689       C  0.33495669  0.07966154  0.70736286    -0.10700
C1690       C  0.32782765  0.07972987  0.66637327     0.06400
C1691       C  0.31390531  0.07696732  0.67065486    -0.09500
C1692       C  0.30749167  0.07460280  0.71449953    -0.11100
C1693       C  0.31481058  0.07502879  0.75542229    -0.00900
C1694       C  0.32856409  0.07740077  0.75127880    -0.10000
C1695       C  0.33497863  0.08317901  0.61970431     0.06400
H1696       H  0.30807415  0.07710505  0.64030787     0.08400
H1697       H  0.29688247  0.07282925  0.71641135     0.11800
H1698       H  0.33446745  0.07771506  0.78206209     0.12100
H1699       H  0.34555725  0.08142625  0.70566747     0.08400
C1700       C  0.34943526  0.09291111  0.61580109    -0.10700
C1701       C  0.35598847  0.09665080  0.57203421    -0.10000
C1702       C  0.34829224  0.09085116  0.53086407    -0.00900
C1703       C  0.33391544  0.08101309  0.53459991    -0.11100
C1704       C  0.32737421  0.07718711  0.57837699    -0.09500
H1705       H  0.35565361  0.09797762  0.64644492     0.08400
H1706       H  0.36707324  0.10433644  0.57041575     0.12100
H1707       H  0.32768217  0.07633156  0.50361279     0.11800
H1708       H  0.31630629  0.06947738  0.57970325     0.08400
C1709       C  0.32928281  0.07514884  0.08944874    -0.10700
C1710       C  0.33181470  0.08704563  0.11481143     0.06400
C1711       C  0.32840946  0.09656885  0.09427111    -0.09500
C1712       C  0.32245031  0.09420612  0.04969285    -0.11100
C1713       C  0.31985967  0.08230536  0.02428852    -0.00900
C1714       C  0.32344085  0.07285270  0.04446407    -0.10000
C1715       C  0.33795955  0.08963217  0.16257302     0.06400
H1716       H  0.33009986  0.10574944  0.11316950     0.08400
H1717       H  0.31973068  0.10164082  0.03530154     0.11800
H1718       H  0.32148236  0.06354417  0.02583394     0.12100
H1719       H  0.33189736  0.06769400  0.10432261     0.08400
C1720       C  0.33283444  0.07897857  0.19664904    -0.10700
C1721       C  0.33819708  0.08178144  0.24234731    -0.10000
C1722       C  0.34895604  0.09524161  0.25446927    -0.00900
C1723       C  0.35423848  0.10577819  0.22006653    -0.11100
C1724       C  0.34875665  0.10304143  0.17480848    -0.09500
H1725       H  0.32445288  0.06855799  0.18820204     0.08400
H1726       H  0.33400271  0.07344677  0.26805364     0.12100
H1727       H  0.36256103  0.11625103  0.22826218     0.11800
H1728       H  0.35300478  0.11141337  0.14921810     0.08400
C1729       C  0.53310676  0.03187262  0.22496612    -0.10700
C1730       C  0.53353732  0.04387890  0.20618615     0.06400
C1731       C  0.54658966  0.05516976  0.19235558    -0.09500
C1732       C  0.55882364  0.05418789  0.19567671    -0.11100
C1733       C  0.55816900  0.04190502  0.21282771    -0.00900
C1734       C  0.54520986  0.03087110  0.22800318    -0.10000
C1735       C  0.52021893  0.04417231  0.20034365     0.06400
H1736       H  0.54727486  0.06456956  0.17781134     0.08400
H1737       H  0.56870861  0.06289541  0.18402513     0.11800
H1738       H  0.54437023  0.02135328  0.24211961     0.12100
H1739       H  0.52333652  0.02314935  0.23730785     0.08400
C1740       C  0.50797797  0.03196812  0.18656683    -0.10700
C1741       C  0.49508451  0.03147910  0.18531356    -0.10000
C1742       C  0.49403117  0.04322882  0.19721590    -0.00900
C1743       C  0.50632797  0.05570488  0.20880541    -0.11100
C1744       C  0.51933709  0.05617520  0.21034605    -0.09500
H1745       H  0.50831503  0.02265362  0.17730347     0.08400
H1746       H  0.48585167  0.02174093  0.17574139     0.12100
H1747       H  0.50581999  0.06492204  0.21815127     0.11800
H1748       H  0.52857902  0.06573926  0.22107814     0.08400
C1749       C  0.43515214  0.08334932  0.27936631    -0.10700
C1750       C  0.42044591  0.07645193  0.28351070     0.06400
C1751       C  0.41242439  0.06315726  0.26362219    -0.09500
C1752       C  0.41892260  0.05647682  0.24303712    -0.11100
C1753       C  0.43362577  0.06295709  0.24151091    -0.00900
C1754       C  0.44169630  0.07663422  0.25854968    -0.10000
C1755       C  0.41337657  0.08256746  0.31072206     0.06400
H1756       H  0.40106482  0.05773116  0.26510397     0.08400
H1757       H  0.41240770  0.04599870  0.22978793     0.11800
H1758       H  0.45305488  0.08185759  0.25793133     0.12100
H1759       H  0.44159528  0.09361148  0.29428490     0.08400
C1760       C  0.40225549  0.07399184  0.34078316    -0.10700
C1761       C  0.39482297  0.07926995  0.36420344    -0.10000
C1762       C  0.39836222  0.09328672  0.35829657    -0.00900
C1763       C  0.40995316  0.10208988  0.33021697    -0.11100
C1764       C  0.41739053  0.09677427  0.30654787    -0.09500
H1765       H  0.39914285  0.06308296  0.34568495     0.08400
H1766       H  0.38599472  0.07224661  0.38573219     0.12100
H1767       H  0.41284432  0.11291927  0.32470259     0.11800
H1768       H  0.42590262  0.10362274  0.28363010     0.08400
C1769       C  0.47408033  0.96929163  0.75202177    -0.10700
C1770       C  0.47513038  0.95861546  0.72954528     0.06400
C1771       C  0.46309070  0.94775715  0.70807315    -0.09500
C1772       C  0.45043022  0.94797426  0.70739459    -0.11100
C1773       C  0.44968099  0.95907390  0.72810041    -0.00900
C1774       C  0.46154996  0.96952410  0.75125090    -0.10000
C1775       C  0.48890273  0.95918172  0.72791700     0.06400
H1776       H  0.46359834  0.93938415  0.69045741     0.08400
H1777       H  0.44143101  0.93978386  0.68932078     0.11800
H1778       H  0.46125540  0.97811301  0.76814170     0.12100
H1779       H  0.48302950  0.97758950  0.76995809     0.08400
C1780       C  0.50126592  0.97202788  0.72048410    -0.10700
C1781       C  0.51432397  0.97281110  0.72065335    -0.10000
C1782       C  0.51534794  0.96075833  0.72802465    -0.00900
C1783       C  0.50301554  0.94788365  0.73501314    -0.11100
C1784       C  0.48990397  0.94709647  0.73482814    -0.09500
H1785       H  0.50083922  0.98149452  0.71421953     0.08400
H1786       H  0.52362792  0.98287989  0.71483647     0.12100
H1787       H  0.50350234  0.93842974  0.74067137     0.11800
H1788       H  0.48057486  0.93708413  0.74098697     0.08400
C1789       C  0.43098674  0.99806253  0.40289711    -0.10700
C1790       C  0.43877256  0.00624865  0.44105083     0.06400
C1791       C  0.44930127  0.02014429  0.43312910    -0.09500
C1792       C  0.45189654  0.02578302  0.38795561    -0.11100
C1793       C  0.44390964  0.01768685  0.34986989    -0.00900
C1794       C  0.43347834  0.00374040  0.35777598    -0.10000
C1795       C  0.43572898  0.00030499  0.48898192     0.06400
H1796       H  0.45554603  0.02661301  0.46188246     0.08400
H1797       H  0.46007284  0.03654805  0.38293730     0.11800
H1798       H  0.42717830  0.99725022  0.32916254     0.12100
H1799       H  0.42275051  0.98733471  0.40816586     0.08400
C1800       C  0.43384347  0.00753050  0.52587441    -0.10700
C1801       C  0.43022300  0.00151025  0.57054574    -0.10000
C1802       C  0.42857246  0.98822201  0.57912654    -0.00900
C1803       C  0.43074082  0.98116332  0.54233254    -0.11100
C1804       C  0.43423820  0.98711698  0.49777210    -0.09500
H1805       H  0.43482331  0.01767571  0.51982662     0.08400
H1806       H  0.42855217  0.00716052  0.59814187     0.12100
H1807       H  0.42958683  0.97092490  0.54782058     0.11800
H1808       H  0.43576642  0.98139897  0.47005675     0.08400
C1809       C  0.42128488  0.99667835  0.02854621    -0.10700
C1810       C  0.42691522  0.00440436  0.98714192     0.06400
C1811       C  0.43645767  0.01883551  0.99062717    -0.09500
C1812       C  0.44049708  0.02529129  0.03428117    -0.11100
C1813       C  0.43513358  0.01747906  0.07558558    -0.00900
C1814       C  0.42536896  0.00313185  0.07221820    -0.10000
C1815       C  0.42330815  0.99738463  0.94067373     0.06400
H1816       H  0.44116796  0.02509394  0.95962788     0.08400
H1817       H  0.44809816  0.03635335  0.03569309     0.11800
H1818       H  0.42100683  0.99683726  0.10339924     0.12100
H1819       H  0.41374631  0.98560672  0.02723059     0.08400
C1820       C  0.42179384  0.98403763  0.93530012    -0.10700
C1821       C  0.41911207  0.97772965  0.89133028    -0.10000
C1822       C  0.41798029  0.98464853  0.85153896    -0.00900
C1823       C  0.41930740  0.99789146  0.85688142    -0.11100
C1824       C  0.42186035  0.00415081  0.90091866    -0.09500
H1825       H  0.42307617  0.97860452  0.96489149     0.08400
H1826       H  0.41829027  0.96757714  0.88829631     0.12100
H1827       H  0.41843150  0.00345603  0.82691703     0.11800
H1828       H  0.42273513  0.01432357  0.90379047     0.08400
C1829       C  0.19691720  0.83223273  0.53026357    -0.10700
C1830       C  0.19692542  0.82085367  0.55252417     0.06400
C1831       C  0.20934752  0.82292147  0.57404827    -0.09500
C1832       C  0.22127143  0.83632664  0.57545562    -0.11100
C1833       C  0.22089177  0.84781688  0.55547422    -0.00900
C1834       C  0.20871607  0.84554076  0.53187740    -0.10000
C1835       C  0.18355947  0.80735107  0.55658402     0.06400
H1836       H  0.20961783  0.81433872  0.59162680     0.08400
H1837       H  0.23054507  0.83780607  0.59386065     0.11800
H1838       H  0.20817452  0.85414576  0.51557300     0.12100
H1839       H  0.18758414  0.83089902  0.51265536     0.08400
C1840       C  0.17130638  0.80749199  0.56894141    -0.10700
C1841       C  0.15849792  0.79512200  0.57197469    -0.10000
C1842       C  0.15752039  0.78218911  0.56287480    -0.00900
C1843       C  0.16978956  0.78191433  0.55113114    -0.11100
C1844       C  0.18274738  0.79442631  0.54816771    -0.09500
H1845       H  0.17164094  0.81724251  0.57659780     0.08400
H1846       H  0.14930956  0.79572955  0.58159413     0.12100
H1847       H  0.16934900  0.77208826  0.54403251     0.11800
H1848       H  0.19205446  0.79403794  0.53855355     0.08400
C1849       C  0.32135473  0.92771988  0.61731859    -0.10700
C1850       C  0.32760478  0.91944587  0.62502132     0.06400
C1851       C  0.31924332  0.90483922  0.62010566    -0.09500
C1852       C  0.30502317  0.89875223  0.60755764    -0.11100
C1853       C  0.29896210  0.90717502  0.59946705    -0.00900
C1854       C  0.30731858  0.92169911  0.60435619    -0.10000
C1855       C  0.34271670  0.92627293  0.63867791     0.06400
H1856       H  0.32368889  0.89813046  0.62555057     0.08400
H1857       H  0.29877743  0.88749670  0.60441657     0.11800
H1858       H  0.30293964  0.92848019  0.59905048     0.12100
H1859       H  0.32722390  0.93892321  0.62221216     0.08400
C1860       C  0.35220840  0.93971745  0.62159374    -0.10700
C1861       C  0.36597458  0.94696750  0.63796735    -0.10000
C1862       C  0.37083048  0.94087535  0.67089856    -0.00900
C1863       C  0.36168209  0.92714873  0.68622903    -0.11100
C1864       C  0.34770277  0.91994502  0.67052875    -0.09500
H1865       H  0.34898703  0.94476504  0.59575924     0.08400
H1866       H  0.37286980  0.95741696  0.62462410     0.12100
H1867       H  0.36520537  0.92217757  0.71133826     0.11800
H1868       H  0.34071069  0.90962925  0.68459563     0.08400
C1869       C  0.24179748  0.91553561  0.76918859    -0.10700
C1870       C  0.23902386  0.90579292  0.80545370     0.06400
C1871       C  0.23862535  0.89320464  0.79474673    -0.09500
C1872       C  0.24100368  0.89044087  0.74925983    -0.11100
C1873       C  0.24383519  0.90015964  0.71307775    -0.00900
C1874       C  0.24416265  0.91274141  0.72343178    -0.10000
C1875       C  0.23653645  0.90863227  0.85429084     0.06400
H1876       H  0.23673748  0.88555706  0.82176892     0.08400
H1877       H  0.24073961  0.88067379  0.74253592     0.11800
H1878       H  0.24636206  0.92045309  0.69632442     0.12100
H1879       H  0.24201404  0.92526916  0.77608556     0.08400
C1880       C  0.24432332  0.92208824  0.87347316    -0.10700
C1881       C  0.24181335  0.92471832  0.91917225    -0.10000
C1882       C  0.23138742  0.91397209  0.94659959    -0.00900
C1883       C  0.22379682  0.90047793  0.92781809    -0.11100
C1884       C  0.22635522  0.89782909  0.88231264    -0.09500
H1885       H  0.25239818  0.93059389  0.85318921     0.08400
H1886       H  0.24778599  0.93524437  0.93260758     0.12100
H1887       H  0.21566366  0.89199125  0.94802907     0.11800
H1888       H  0.22007108  0.88736960  0.86864971     0.08400
C1889       C  0.25018616  0.92407219  0.38741815    -0.10700
C1890       C  0.24880015  0.91601423  0.34766244     0.06400
C1891       C  0.24923468  0.90357304  0.35399979    -0.09500
C1892       C  0.25083700  0.89925514  0.39846931    -0.11100
C1893       C  0.25179757  0.90709000  0.43806490    -0.00900
C1894       C  0.25152010  0.91958392  0.43213194    -0.10000
C1895       C  0.24604689  0.91999317  0.30026347     0.06400
H1896       H  0.24787541  0.89685008  0.32481859     0.08400
H1897       H  0.25093641  0.88952788  0.40195601     0.11800
H1898       H  0.25237020  0.92590192  0.46203032     0.12100
H1899       H  0.25020100  0.93384899  0.38416089     0.08400
C1900       C  0.23818363  0.92681517  0.29519083    -0.10700
C1901       C  0.23417477  0.92906599  0.25095841    -0.10000
C1902       C  0.23780720  0.92447144  0.21056252    -0.00900
C1903       C  0.24621300  0.91826331  0.21522170    -0.11100
C1904       C  0.25036597  0.91614492  0.25945503    -0.09500
H1905       H  0.23449114  0.92983651  0.32540965     0.08400
H1906       H  0.22772881  0.93392257  0.24856371     0.12100
H1907       H  0.24927257  0.91469295  0.18474920     0.11800
H1908       H  0.25676694  0.91124617  0.26155710     0.08400
loop_ 
_geom_bond_atom_site_label_1 
_geom_bond_atom_site_label_2 
_geom_bond_distance 
_geom_bond_site_symmetry_2 
_ccdc_geom_bond_type 
O1            C4   1.269       .  A
O1           Cd6   2.490       .  S
C2           O11   1.263       .  A
C2            O7   1.268       .  A
C2         C1873   1.484       .  S
O3            C9   1.269       .  A
O3           Cd6   2.493       .  S
C4           O12   1.266       .  A
C4         C1893   1.481       .  S
C5           O10   1.267       .  A
C5            O8   1.263       .  A
C5         C1853   1.479       .  S
Cd6          O13   2.431       .  S
Cd6          O12   2.445       .  S
Cd6          O11   2.445       .  S
Cd6           O7   2.517       .  S
Cd6          O10   2.504       .  S
Cd6           O8   2.422       .  S
C9           O13   1.266       .  A
C9         C1833   1.479       .  S
O14          C17   1.269       .  A
O14         Cd19   2.481       .  S
C15          O24   1.265       .  A
C15          O20   1.270       .  A
C15        C1802   1.481       .  S
O16          C22   1.271       .  A
O16         Cd19   2.517       .  S
C17          O25   1.267       .  A
C17        C1822   1.485       .  S
C18          O23   1.270       .  A
C18          O21   1.263       .  A
C18        C1862   1.480       .  S
Cd19         O26   2.395       .  S
Cd19         O25   2.478       .  S
Cd19         O24   2.430       .  S
Cd19         O20   2.495       .  S
Cd19         O23   2.517       .  S
Cd19         O21   2.423       .  S
C22          O26   1.264       .  A
C22        C1773   1.479       .  S
O27          C30   1.269       .  A
O27         Cd32   2.488       .  S
C28          O37   1.268       .  A
C28          O33   1.269       .  A
C28        C1813   1.484       .  S
O29          C35   1.271       .  A
O29         Cd32   2.502       .  S
C30          O38   1.264       .  A
C30        C1793   1.481       .  S
C31          O36   1.271       .  A
C31          O34   1.264       .  A
C31        C1742   1.482       .  S
Cd32         O39   2.416       .  S
Cd32         O38   2.446       .  S
Cd32         O37   2.467       .  S
Cd32         O33   2.471       .  S
Cd32         O36   2.512       .  S
Cd32         O34   2.410       .  S
C35          O39   1.264       .  A
C35        C1753   1.479       .  S
O40          C43   1.269       .  A
O40         Cd45   2.486       .  S
C41          O50   1.263       .  A
C41          O46   1.269       .  A
C41        C1722   1.482       .  S
O42          C48   1.270       .  A
O42         Cd45   2.500       .  S
C43          O51   1.268       .  A
C43        C1702   1.489       .  S
C44          O49   1.267       .  A
C44          O47   1.266       .  A
C44        C1762   1.481       .  S
Cd45         O52   2.424       .  S
Cd45         O51   2.481       .  S
Cd45         O50   2.437       .  S
Cd45         O46   2.514       .  S
Cd45         O49   2.485       .  S
Cd45         O47   2.454       .  S
C48          O52   1.265       .  A
C48        C1682   1.481       .  S
O53          C56   1.269       .  A
O53         Cd58   2.485       .  S
C54          O63   1.264   1_556  A
C54          O59   1.264   1_556  A
C54        C1882   1.483       .  S
O55          C61   1.266       .  A
O55         Cd58   2.488       .  S
C56          O64   1.267       .  A
C56        C1902   1.485       .  S
C57          O62   1.264       .  A
C57          O60   1.266       .  A
C57        C1653   1.476       .  S
Cd58         O65   2.443       .  S
Cd58         O64   2.462       .  S
Cd58         O63   2.474       .  S
Cd58         O59   2.494       .  S
Cd58         O62   2.469       .  S
Cd58         O60   2.459       .  S
C61          O65   1.263       .  A
C61        C1633   1.476       .  S
O66          C69   1.269       .  A
O66         Cd71   2.494       .  S
C67          O76   1.266       .  A
C67          O72   1.261       .  A
C67        C1713   1.483   1_556  S
O68          C74   1.269       .  A
O68         Cd71   2.500       .  S
C69          O77   1.267       .  A
C69        C1693   1.489       .  S
C70          O75   1.265       .  A
C70          O73   1.264       .  A
C70        C1662   1.480       .  S
Cd71         O78   2.426       .  S
Cd71         O77   2.478       .  S
Cd71         O76   2.512       .  S
Cd71         O72   2.461       .  S
Cd71         O75   2.481       .  S
Cd71         O73   2.480       .  S
C74          O78   1.265       .  A
C74        C1613   1.479       .  S
O79          C82   1.266       .  A
O79         Cd84   2.482       .  S
C80          O89   1.266       .  A
C80          O85   1.270       .  A
C80        C1553   1.485       .  S
O81          C87   1.270       .  A
O81         Cd84   2.531       .  S
C82          O90   1.265       .  A
C82        C1573   1.484       .  S
C83          O88   1.269       .  A
C83          O86   1.263       .  A
C83        C1533   1.482       .  S
Cd84         O91   2.427       .  S
Cd84         O90   2.487       .  S
Cd84         O89   2.446   1_554  S
Cd84         O85   2.497   1_554  S
Cd84         O88   2.513       .  S
Cd84         O86   2.431       .  S
C87          O91   1.265       .  A
C87        C1602   1.486       .  S
O92          C95   1.270       .  A
O92         Cd97   2.490       .  S
C93         O102   1.265       .  A
C93          O98   1.267       .  A
C93        C1502   1.484       .  S
O94         C100   1.270       .  A
O94         Cd97   2.508       .  S
C95         O103   1.266       .  A
C95        C1522   1.483   1_556  S
C96         O101   1.269       .  A
C96          O99   1.264       .  A
C96        C1593   1.483       .  S
Cd97        O104   2.416       .  S
Cd97        O103   2.454       .  S
Cd97        O102   2.471       .  S
Cd97         O98   2.491       .  S
Cd97        O101   2.517       .  S
Cd97         O99   2.426       .  S
C100        O104   1.265       .  A
C100       C1473   1.482       .  S
O105        C108   1.268       .  A
O105       Cd110   2.476       .  S
C106        O115   1.265       .  A
C106        O111   1.269       .  A
C106       C1513   1.481       .  S
O107        C113   1.270       .  A
O107       Cd110   2.514       .  S
C108        O116   1.267       .  A
C108       C1493   1.485       .  S
C109        O114   1.270       .  A
C109        O112   1.263       .  A
C109       C1433   1.481       .  S
Cd110       O117   2.431       .  S
Cd110       O116   2.473       .  S
Cd110       O115   2.435       .  S
Cd110       O111   2.491       .  S
Cd110       O114   2.516       .  S
Cd110       O112   2.414       .  S
C113        O117   1.265       .  A
C113       C1462   1.484       .  S
O118        C121   1.268       .  A
O118       Cd123   2.485       .  S
C119        O128   1.264       .  A
C119        O124   1.269       .  A
C119       C1393   1.480       .  S
O120        C126   1.267       .  A
O120       Cd123   2.494       .  S
C121        O129   1.267       .  A
C121       C1413   1.485       .  S
C122        O127   1.270       .  A
C122        O125   1.265       .  A
C122       C1733   1.480       .  S
Cd123       O130   2.448       .  S
Cd123       O129   2.469       .  S
Cd123       O128   2.431       .  S
Cd123       O124   2.495       .  S
Cd123       O127   2.499       .  S
Cd123       O125   2.417       .  S
C126        O130   1.265       .  A
C126       C1453   1.483       .  S
O131        C134   1.268       .  A
O131       Cd136   2.468       .  S
C132        O141   1.264       .  A
C132        O137   1.269       .  A
C132       C1402   1.480       .  S
O133        C139   1.268       .  A
O133       Cd136   2.494       .  S
C134        O142   1.267       .  A
C134       C1422   1.483       .  S
C135        O140   1.270       .  A
C135        O138   1.265       .  A
C135       C1782   1.478       .  S
Cd136       O143   2.453       .  S
Cd136       O142   2.470       .  S
Cd136       O141   2.433       .  S
Cd136       O137   2.494       .  S
Cd136       O140   2.480       .  S
Cd136       O138   2.429       .  S
C139        O143   1.266       .  A
C139       C1373   1.483       .  S
O144        C147   1.269       .  A
O144       Cd149   2.504       .  S
C145        O154   1.267       .  A
C145        O150   1.267       .  A
C145       C1582   1.483       .  S
O146        C152   1.269       .  A
O146       Cd149   2.515       .  S
C147        O155   1.264       .  A
C147       C1562   1.483       .  S
C148        O153   1.269       .  A
C148        O151   1.266       .  A
C148       C1382   1.482       .  S
Cd149       O156   2.430       .  S
Cd149       O155   2.433       .  S
Cd149       O154   2.480       .  S
Cd149       O150   2.470       .  S
Cd149       O153   2.505       .  S
Cd149       O151   2.434       .  S
C152        O156   1.263       .  A
C152       C1353   1.483       .  S
O157        C160   1.269       .  A
O157       Cd162   2.494       .  S
C158        O167   1.264       .  A
C158        O163   1.268       .  A
C158       C1333   1.480       .  S
O159        C165   1.270       .  A
O159       Cd162   2.520       .  S
C160        O168   1.268       .  A
C160       C1322   1.490       .  S
C161        O166   1.270       .  A
C161        O164   1.266       .  A
C161       C1293   1.488       .  S
Cd162       O169   2.425       .  S
Cd162       O168   2.480       .  S
Cd162       O167   2.451       .  S
Cd162       O163   2.493       .  S
Cd162       O166   2.517       .  S
Cd162       O164   2.447       .  S
C165        O169   1.263       .  A
C165       C1273   1.479       .  S
O170        C173   1.267       .  A
O170       Cd175   2.493       .  S
C171        O180   1.265       .  A
C171        O176   1.269       .  A
C171       C1233   1.478       .  S
O172        C178   1.271       .  A
O172       Cd175   2.503       .  S
C173        O181   1.266       .  A
C173       C1262   1.484       .  S
C174        O179   1.270       .  A
C174        O177   1.261       .  A
C174       C1302   1.486       .  S
Cd175       O182   2.424       .  S
Cd175       O181   2.471       .  S
Cd175       O180   2.444       .  S
Cd175       O176   2.487       .  S
Cd175       O179   2.554       .  S
Cd175       O177   2.405       .  S
C178        O182   1.265       .  A
C178       C1213   1.480       .  S
O183        C186   1.268       .  A
O183       Cd188   2.466       .  S
C184        O193   1.264       .  A
C184        O189   1.267       .  A
C184       C1173   1.482       .  S
O185        C191   1.270       .  A
O185       Cd188   2.532       .  S
C186        O194   1.269       .  A
C186       C1202   1.483       .  S
C187        O192   1.270       .  A
C187        O190   1.265       .  A
C187       C1153   1.485       .  S
Cd188       O195   2.418       .  S
Cd188       O194   2.470       .  S
Cd188       O193   2.450       .  S
Cd188       O189   2.504       .  S
Cd188       O192   2.511       .  S
Cd188       O190   2.436       .  S
C191        O195   1.262       .  A
C191       C1362   1.484       .  S
O196        C199   1.269       .  A
O196       Cd201   2.497       .  S
C197        O206   1.264       .  A
C197        O202   1.269       .  A
C197       C1242   1.480       .  S
O198        C204   1.271       .  A
O198       Cd201   2.500       .  S
C199        O207   1.267       .  A
C199       C1253   1.487       .  S
C200        O205   1.270       .  A
C200        O203   1.263       .  A
C200       C1162   1.483       .  S
Cd201       O208   2.435       .  S
Cd201       O207   2.463       .  S
Cd201       O206   2.453       .  S
Cd201       O202   2.482       .  S
Cd201       O205   2.531       .  S
Cd201       O203   2.422       .  S
C204        O208   1.265       .  A
C204       C1133   1.482       .  S
O209        C212   1.268       .  A
O209       Cd214   2.484       .  S
C210        O219   1.264       .  A
C210        O215   1.270       .  A
C210       C1182   1.483       .  S
O211        C217   1.270       .  A
O211       Cd214   2.523       .  S
C212        O220   1.267       .  A
C212       C1193   1.487       .  S
C213        O218   1.271       .  A
C213        O216   1.264       .  A
C213       C1113   1.481       .  S
Cd214       O221   2.412       .  S
Cd214       O220   2.486       .  S
Cd214       O219   2.453   1_554  S
Cd214       O215   2.507   1_554  S
Cd214       O218   2.510       .  S
Cd214       O216   2.408       .  S
C217        O221   1.264       .  A
C217       C1542   1.482       .  S
O222        C225   1.269       .  A
O222       Cd227   2.496       .  S
C223        O232   1.265       .  A
C223        O228   1.269   1_554  A
C223       C1342   1.482       .  S
O224        C230   1.269       .  A
O224       Cd227   2.513       .  S
C225        O233   1.267       .  A
C225       C1313   1.489       .  S
C226        O231   1.270       .  A
C226        O229   1.264       .  A
C226       C1122   1.478       .  S
Cd227       O234   2.416       .  S
Cd227       O233   2.470       .  S
Cd227       O232   2.460   1_556  S
Cd227       O228   2.496       .  S
Cd227       O231   2.505       .  S
Cd227       O229   2.408       .  S
C230        O234   1.263       .  A
C230       C1093   1.478       .  S
O235        C238   1.267       .  A
O235       Cd240   2.461       .  S
C236        O245   1.265       .  A
C236        O241   1.270       .  A
C236       C1073   1.485       .  S
O237        C243   1.270       .  A
O237       Cd240   2.493       .  S
C238        O246   1.266       .  A
C238       C1053   1.480       .  S
C239        O244   1.269       .  A
C239        O242   1.263       .  A
C239       C1673   1.476       .  S
Cd240       O247   2.399       .  S
Cd240       O246   2.474       .  S
Cd240       O245   2.446       .  S
Cd240       O241   2.507       .  S
Cd240       O244   2.510       .  S
Cd240       O242   2.404       .  S
C243        O247   1.265       .  A
C243       C1033   1.477       .  S
O248        C251   1.269       .  A
O248       Cd253   2.499       .  S
C249        O258   1.268       .  A
C249        O254   1.268       .  A
C249       C1013   1.480       .  S
O250        C256   1.270       .  A
O250       Cd253   2.492       .  S
C251        O259   1.264       .  A
C251       C1002   1.480       .  S
C252        O257   1.268       .  A
C252        O255   1.265       .  A
C252       C1042   1.477       .  S
Cd253       O260   2.424       .  S
Cd253       O259   2.432       .  S
Cd253       O258   2.458       .  S
Cd253       O254   2.457       .  S
Cd253       O257   2.484       .  S
Cd253       O255   2.445       .  S
C256        O260   1.264       .  A
C256       C1222   1.480       .  S
O261        C264   1.268       .  A
O261       Cd266   2.489       .  S
C262        O271   1.264       .  A
C262        O267   1.268   1_556  A
C262        C933   1.479       .  S
O263        C269   1.268       .  A
O263       Cd266   2.497       .  S
C264        O272   1.267       .  A
C264        C962   1.485       .  S
C265        O270   1.270       .  A
C265        O268   1.264       .  A
C265        C913   1.479       .  S
Cd266       O273   2.458       .  S
Cd266       O272   2.460       .  S
Cd266       O271   2.445   1_554  S
Cd266       O267   2.489       .  S
Cd266       O270   2.508       .  S
Cd266       O268   2.415       .  S
C269        O273   1.265       .  A
C269        C973   1.484       .  S
O274        C277   1.267       .  A
O274       Cd279   2.460       .  S
C275        O284   1.265       .  A
C275        O280   1.270       .  A
C275       C1082   1.480   1_556  S
O276        C282   1.269       .  A
O276       Cd279   2.500       .  S
C277        O285   1.266       .  A
C277       C1062   1.479       .  S
C278        O283   1.269       .  A
C278        O281   1.264       .  A
C278       C1622   1.478       .  S
Cd279       O286   2.425       .  S
Cd279       O285   2.475       .  S
Cd279       O284   2.419       .  S
Cd279       O280   2.495       .  S
Cd279       O283   2.491       .  S
Cd279       O281   2.416       .  S
C282        O286   1.265       .  A
C282        C982   1.482       .  S
O287        C290   1.269       .  A
O287       Cd292   2.482       .  S
C288        O297   1.268       .  A
C288        O293   1.269       .  A
C288        C953   1.483       .  S
O289        C295   1.270       .  A
O289       Cd292   2.503       .  S
C290        O298   1.264       .  A
C290        C942   1.479       .  S
C291        O296   1.270       .  A
C291        O294   1.265       .  A
C291        C893   1.475       .  S
Cd292       O299   2.401       .  S
Cd292       O298   2.441       .  S
Cd292       O297   2.468       .  S
Cd292       O293   2.462       .  S
Cd292       O296   2.479       .  S
Cd292       O294   2.411       .  S
C295        O299   1.264       .  A
C295        C882   1.478       .  S
O300        C303   1.269       .  A
O300       Cd305   2.465       .  S
C301        O310   1.263       .  A
C301        O306   1.269       .  A
C301        C993   1.484       .  S
O302        C308   1.267       .  A
O302       Cd305   2.480       .  S
C303        O311   1.267       .  A
C303       C1022   1.482       .  S
C304        O309   1.269       .  A
C304        O307   1.265       .  A
C304       C1142   1.481       .  S
Cd305       O312   2.443       .  S
Cd305       O311   2.473       .  S
Cd305       O310   2.434       .  S
Cd305       O306   2.521       .  S
Cd305       O309   2.500       .  S
Cd305       O307   2.420       .  S
C308        O312   1.264       .  A
C308        C902   1.476       .  S
O313        C316   1.267       .  A
O313       Cd318   2.480       .  S
C314        O323   1.265       .  A
C314        O319   1.269       .  A
C314        C842   1.483       .  S
O315        C321   1.268       .  A
O315       Cd318   2.483       .  S
C316        O324   1.266       .  A
C316        C853   1.482       .  S
C317        O322   1.269       .  A
C317        O320   1.264       .  A
C317        C793   1.477       .  S
Cd318       O325   2.431       .  S
Cd318       O324   2.474       .  S
Cd318       O323   2.448       .  S
Cd318       O319   2.496       .  S
Cd318       O322   2.503       .  S
Cd318       O320   2.410       .  S
C321        O325   1.265       .  A
C321        C813   1.479       .  S
O326        C329   1.267       .  A
O326       Cd331   2.493       .  S
C327        O336   1.268       .  A
C327        O332   1.268       .  A
C327        C762   1.488       .  S
O328        C334   1.269       .  A
O328       Cd331   2.520       .  S
C329        O337   1.263       .  A
C329        C782   1.479       .  S
C330        O335   1.270       .  A
C330        O333   1.265       .  A
C330        C822   1.482       .  S
Cd331       O338   2.448       .  S
Cd331       O337   2.448       .  S
Cd331       O336   2.483       .  S
Cd331       O332   2.485       .  S
Cd331       O335   2.510       .  S
Cd331       O333   2.427       .  S
C334        O338   1.264       .  A
C334       C1282   1.486       .  S
O339        C342   1.268       .  A
O339       Cd344   2.498       .  S
C340        O349   1.265       .  A
C340        O345   1.268   1_556  A
C340        C713   1.478       .  S
O341        C347   1.269       .  A
O341       Cd344   2.523       .  S
C342        O350   1.266       .  A
C342        C733   1.483       .  S
C343        O348   1.270       .  A
C343        O346   1.265       .  A
C343       C1642   1.480       .  S
Cd344       O351   2.415       .  S
Cd344       O350   2.452       .  S
Cd344       O349   2.438   1_554  S
Cd344       O345   2.475       .  S
Cd344       O348   2.498       .  S
Cd344       O346   2.431       .  S
C347        O351   1.264       .  A
C347        C693   1.483       .  S
O352        C355   1.269   1_556  A
O352       Cd357   2.484       .  S
C353        O362   1.267       .  A
C353        O358   1.266       .  A
C353        C753   1.487       .  S
O354        C360   1.269       .  A
O354       Cd357   2.516       .  S
C355        O363   1.265       .  A
C355        C773   1.479       .  S
C356        O361   1.270       .  A
C356        O359   1.264       .  A
C356        C702   1.481       .  S
Cd357       O364   2.418       .  S
Cd357       O363   2.431   1_556  S
Cd357       O362   2.489       .  S
Cd357       O358   2.482       .  S
Cd357       O361   2.521       .  S
Cd357       O359   2.418       .  S
C360        O364   1.263       .  A
C360       C1102   1.481       .  S
O365        C368   1.270       .  A
O365       Cd370   2.503       .  S
C366        O375   1.268       .  A
C366        O371   1.269       .  A
C366        C742   1.484       .  S
O367        C373   1.270       .  A
O367       Cd370   2.515       .  S
C368        O376   1.264       .  A
C368        C722   1.481       .  S
C369        O374   1.268       .  A
C369        O372   1.265       .  A
C369        C682   1.480       .  S
Cd370       O377   2.413       .  S
Cd370       O376   2.435       .  S
Cd370       O375   2.472       .  S
Cd370       O371   2.471       .  S
Cd370       O374   2.480       .  S
Cd370       O372   2.447       .  S
C373        O377   1.264       .  A
C373       C1842   1.482       .  S
O378        C381   1.267       .  A
O378       Cd383   2.488       .  S
C379        O388   1.265       .  A
C379        O384   1.270       .  A
C379        C833   1.483       .  S
O380        C386   1.270       .  A
O380       Cd383   2.500       .  S
C381        O389   1.266       .  A
C381        C862   1.486       .  S
C382        O387   1.270       .  A
C382        O385   1.263       .  A
C382        C653   1.482       .  S
Cd383       O390   2.428       .  S
Cd383       O389   2.480       .  S
Cd383       O388   2.454       .  S
Cd383       O384   2.489       .  S
Cd383       O387   2.525       .  S
Cd383       O385   2.411       .  S
C386        O390   1.265       .  A
C386        C673   1.482       .  S
O391        C394   1.268       .  A
O391       Cd396   2.481       .  S
C392        O401   1.266       .  A
C392        O397   1.263       .  A
C392        C613   1.484   1_556  S
O393        C399   1.268       .  A
O393       Cd396   2.502       .  S
C394        O402   1.267       .  A
C394        C633   1.486       .  S
C395        O400   1.265       .  A
C395        O398   1.265       .  A
C395        C593   1.484       .  S
Cd396       O403   2.452       .  S
Cd396       O402   2.475       .  S
Cd396       O401   2.519       .  S
Cd396       O397   2.458       .  S
Cd396       O400   2.492       .  S
Cd396       O398   2.472       .  S
C399        O403   1.264       .  A
C399       C1482   1.483       .  S
O404        C407   1.269       .  A
O404       Cd409   2.507       .  S
C405        O414   1.263       .  A
C405        O410   1.264       .  A
C405        C553   1.480   1_554  S
O406        C412   1.268       .  A
O406       Cd409   2.503       .  S
C407        O415   1.266       .  A
C407        C573   1.488       .  S
C408        O413   1.267       .  A
C408        O411   1.264       .  A
C408        C602   1.486       .  S
Cd409       O416   2.430       .  S
Cd409       O415   2.460       .  S
Cd409       O414   2.478       .  S
Cd409       O410   2.470       .  S
Cd409       O413   2.505       .  S
Cd409       O411   2.467       .  S
C412        O416   1.263       .  A
C412        C922   1.475       .  S
O417        C420   1.269       .  A
O417       Cd422   2.485       .  S
C418        O427   1.265       .  A
C418        O423   1.269       .  A
C418        C622   1.484       .  S
O419        C425   1.270       .  A
O419       Cd422   2.491       .  S
C420        O428   1.266       .  A
C420        C642   1.486       .  S
C421        O426   1.269       .  A
C421        O424   1.264       .  A
C421        C542   1.481       .  S
Cd422       O429   2.422       .  S
Cd422       O428   2.466       .  S
Cd422       O427   2.453       .  S
Cd422       O423   2.500       .  S
Cd422       O426   2.516       .  S
Cd422       O424   2.421       .  S
C425        O429   1.266       .  A
C425       C1442   1.479       .  S
O430        C433   1.268       .  A
O430       Cd435   2.485       .  S
C431        O440   1.262       .  A
C431        O436   1.268       .  A
C431        C502   1.470       .  S
O432        C438   1.270       .  A
O432       Cd435   2.526       .  S
C433        O441   1.267       .  A
C433        C522   1.483       .  S
C434        O439   1.272       .  A
C434        O437   1.266       .  A
C434        C533   1.479       .  S
Cd435       O442   2.402       .  S
Cd435       O441   2.464       .  S
Cd435       O440   2.442       .  S
Cd435       O436   2.472       .  S
Cd435       O439   2.492       .  S
Cd435       O437   2.399       .  S
C438        O442   1.263       .  A
C438        C802   1.480       .  S
O443        C446   1.267       .  A
O443       Cd448   2.485       .  S
C444        O453   1.265       .  A
C444        O449   1.270       .  A
C444        C562   1.483       .  S
O445        C451   1.270       .  A
O445       Cd448   2.501       .  S
C446        O454   1.266       .  A
C446        C582   1.488       .  S
C447        O452   1.270       .  A
C447        O450   1.265       .  A
C447        C473   1.482       .  S
Cd448       O455   2.421       .  S
Cd448       O454   2.490       .  S
Cd448       O453   2.439       .  S
Cd448       O449   2.506       .  S
Cd448       O452   2.512       .  S
Cd448       O450   2.417       .  S
C451        O455   1.264       .  A
C451        C873   1.479       .  S
O456        C459   1.268       .  A
O456       Cd461   2.465       .  S
C457        O466   1.265       .  A
C457        O462   1.269       .  A
C457        C493   1.478       .  S
O458        C464   1.271       .  A
O458       Cd461   2.519       .  S
C459        O467   1.267       .  A
C459        C513   1.481       .  S
C460        O465   1.271       .  A
C460        O463   1.264       .  A
C460        C482   1.484       .  S
Cd461       O468   2.410       .  S
Cd461       O467   2.464       .  S
Cd461       O466   2.425       .  S
Cd461       O462   2.485       .  S
Cd461       O465   2.519       .  S
Cd461       O463   2.424       .  S
C464        O468   1.264       .  A
C464        C662   1.483       .  S
C469        C470   1.405       .  A
C469        C474   1.392       .  A
C469        H479   1.083       .  S
C470        C475   1.490       .  S
C470        C471   1.409       .  A
C471        C472   1.407       .  A
C471        H476   1.082       .  S
C472        C473   1.407       .  A
C472        H477   1.083       .  S
C473        C474   1.404       .  A
C474        H478   1.083       .  S
C475        C480   1.405       .  A
C475        C484   1.408       .  A
C480        C481   1.393       .  A
C480        H485   1.083       .  S
C481        C482   1.404       .  A
C481        H486   1.084       .  S
C482        C483   1.407       .  A
C483        C484   1.407       .  A
C483        H487   1.082       .  S
C484        H488   1.083       .  S
C489        C490   1.406       .  A
C489        C494   1.393       .  A
C489        H499   1.082       .  S
C490        C495   1.490   1_455  S
C490        C491   1.409   1_455  A
C491        C492   1.401   1_655  A
C491        H496   1.082       .  S
C492        C493   1.404       .  A
C492        H497   1.083   1_455  S
C493        C494   1.403       .  A
C494        H498   1.083       .  S
C495        C500   1.409   1_655  A
C495        C504   1.408       .  A
C500        C501   1.395   1_455  A
C500        H505   1.082       .  S
C501        C502   1.399       .  A
C501        H506   1.083   1_655  S
C502        C503   1.404       .  A
C503        C504   1.399       .  A
C503        H507   1.083       .  S
C504        H508   1.083       .  S
C509        C510   1.407       .  A
C509        C514   1.400       .  A
C509        H519   1.082   1_556  S
C510        C515   1.491   1_556  S
C510        C511   1.407       .  A
C511        C512   1.399       .  A
C511        H516   1.083   1_455  S
C512        C513   1.404       .  A
C512        H517   1.083       .  S
C513        C514   1.405       .  A
C514        H518   1.083       .  S
C515        C520   1.408       .  A
C515        C524   1.407   1_455  A
C520        C521   1.402       .  A
C520        H525   1.083       .  S
C521        C522   1.406   1_455  A
C521        H526   1.083       .  S
C522        C523   1.405       .  A
C523        C524   1.398       .  A
C523        H527   1.083       .  S
C524        H528   1.083       .  S
C529        C530   1.407       .  A
C529        C534   1.391       .  A
C529        H539   1.082       .  S
C530        C535   1.494       .  S
C530        C531   1.410       .  A
C531        C532   1.406       .  A
C531        H536   1.083       .  S
C532        C533   1.406       .  A
C532        H537   1.082       .  S
C533        C534   1.402       .  A
C534        H538   1.084       .  S
C535        C540   1.406       .  A
C535        C544   1.410       .  A
C540        C541   1.392       .  A
C540        H545   1.083       .  S
C541        C542   1.403       .  A
C541        H546   1.083       .  S
C542        C543   1.406       .  A
C543        C544   1.406       .  A
C543        H547   1.083       .  S
C544        H548   1.082       .  S
C549        C550   1.408       .  A
C549        C554   1.399       .  A
C549        H559   1.082       .  S
C550        C555   1.489       .  S
C550        C551   1.406       .  A
C551        C552   1.399       .  A
C551        H556   1.083       .  S
C552        C553   1.405       .  A
C552        H557   1.083       .  S
C553        C554   1.405       .  A
C554        H558   1.083       .  S
C555        C560   1.404       .  A
C555        C564   1.409       .  A
C560        C561   1.396       .  A
C560        H565   1.082       .  S
C561        C562   1.405       .  A
C561        H566   1.083       .  S
C562        C563   1.405       .  A
C563        C564   1.403       .  A
C563        H567   1.083       .  S
C564        H568   1.083       .  S
C569        C570   1.410       .  A
C569        C574   1.405       .  A
C569        H579   1.083       .  S
C570        C575   1.500       .  S
C570        C571   1.408       .  A
C571        C572   1.399       .  A
C571        H576   1.082       .  S
C572        C573   1.405       .  A
C572        H577   1.083       .  S
C573        C574   1.406       .  A
C574        H578   1.082       .  S
C575        C580   1.409       .  A
C575        C584   1.409       .  A
C580        C581   1.403       .  A
C580        H585   1.082       .  S
C581        C582   1.406       .  A
C581        H586   1.084       .  S
C582        C583   1.405       .  A
C583        C584   1.401       .  A
C583        H587   1.083       .  S
C584        H588   1.082       .  S
C589        C590   1.407       .  A
C589        C594   1.398       .  A
C589        H599   1.083   1_655  S
C590        C595   1.490   1_656  S
C590        C591   1.406   1_556  A
C591        C592   1.403   1_554  A
C591        H596   1.083       .  S
C592        C593   1.407       .  A
C592        H597   1.082   1_556  S
C593        C594   1.404       .  A
C594        H598   1.083       .  S
C595        C600   1.405   1_554  A
C595        C604   1.408       .  A
C600        C601   1.399   1_556  A
C600        H605   1.083       .  S
C601        C602   1.406       .  A
C601        H606   1.083   1_554  S
C602        C603   1.406       .  A
C603        C604   1.403       .  A
C603        H607   1.083       .  S
C604        H608   1.083       .  S
C609        C610   1.409       .  A
C609        C614   1.404       .  A
C609        H619   1.082       .  S
C610        C615   1.490       .  S
C610        C611   1.404       .  A
C611        C612   1.397       .  A
C611        H616   1.084       .  S
C612        C613   1.406       .  A
C612        H617   1.082       .  S
C613        C614   1.406       .  A
C614        H618   1.084       .  S
C615        C620   1.407       .  A
C615        C624   1.406       .  A
C620        C621   1.403       .  A
C620        H625   1.084       .  S
C621        C622   1.406       .  A
C621        H626   1.082       .  S
C622        C623   1.405       .  A
C623        C624   1.398       .  A
C623        H627   1.084       .  S
C624        H628   1.082       .  S
C629        C630   1.409       .  A
C629        C634   1.403       .  A
C629        H639   1.083       .  S
C630        C635   1.499       .  S
C630        C631   1.409       .  A
C631        C632   1.400       .  A
C631        H636   1.082       .  S
C632        C633   1.405       .  A
C632        H637   1.084       .  S
C633        C634   1.406       .  A
C634        H638   1.083       .  S
C635        C640   1.409       .  A
C635        C644   1.409       .  A
C640        C641   1.402       .  A
C640        H645   1.082       .  S
C641        C642   1.406       .  A
C641        H646   1.084       .  S
C642        C643   1.404       .  A
C643        C644   1.401       .  A
C643        H647   1.083       .  S
C644        H648   1.082       .  S
C649        C650   1.407       .  A
C649        C654   1.408       .  A
C649        H659   1.083       .  S
C650        C655   1.484       .  S
C650        C651   1.402       .  A
C651        C652   1.390       .  A
C651        H656   1.083       .  S
C652        C653   1.404       .  A
C652        H657   1.083       .  S
C653        C654   1.408       .  A
C654        H658   1.083       .  S
C655        C660   1.407       .  A
C655        C664   1.403       .  A
C660        C661   1.407       .  A
C660        H665   1.083       .  S
C661        C662   1.407       .  A
C661        H666   1.083       .  S
C662        C663   1.405       .  A
C663        C664   1.392       .  A
C663        H667   1.083       .  S
C664        H668   1.083       .  S
C669        C670   1.407       .  A
C669        C674   1.404       .  A
C669        H679   1.083       .  S
C670        C675   1.486       .  S
C670        C671   1.404       .  A
C671        C672   1.394       .  A
C671        H676   1.083       .  S
C672        C673   1.405       .  A
C672        H677   1.083       .  S
C673        C674   1.406       .  A
C674        H678   1.083       .  S
C675        C680   1.405       .  A
C675        C684   1.406       .  A
C680        C681   1.402       .  A
C680        H685   1.083       .  S
C681        C682   1.406       .  A
C681        H686   1.083       .  S
C682        C683   1.404       .  A
C683        C684   1.397       .  A
C683        H687   1.083       .  S
C684        H688   1.083       .  S
C689        C690   1.410       .  A
C689        C694   1.408       .  A
C689        H699   1.083       .  S
C690        C695   1.493   1_455  S
C690        C691   1.405       .  A
C691        C692   1.391       .  A
C691        H696   1.082       .  S
C692        C693   1.403       .  A
C692        H697   1.084       .  S
C693        C694   1.408       .  A
C694        H698   1.082       .  S
C695        C700   1.406       .  A
C695        C704   1.410   1_554  A
C700        C701   1.392   1_554  A
C700        H705   1.082       .  S
C701        C702   1.403       .  A
C701        H706   1.084   1_556  S
C702        C703   1.406       .  A
C703        C704   1.407       .  A
C703        H707   1.082       .  S
C704        H708   1.083       .  S
C709        C710   1.406       .  A
C709        C714   1.398       .  A
C709        H719   1.084       .  S
C710        C715   1.485       .  S
C710        C711   1.405       .  A
C711        C712   1.397       .  A
C711        H716   1.082       .  S
C712        C713   1.405       .  A
C712        H717   1.084       .  S
C713        C714   1.404       .  A
C714        H718   1.082       .  S
C715        C720   1.404       .  A
C715        C724   1.406       .  A
C720        C721   1.396       .  A
C720        H725   1.082       .  S
C721        C722   1.406       .  A
C721        H726   1.084       .  S
C722        C723   1.405       .  A
C723        C724   1.401       .  A
C723        H727   1.082       .  S
C724        H728   1.084       .  S
C729        C730   1.407       .  A
C729        C734   1.397       .  A
C729        H739   1.082       .  S
C730        C735   1.493       .  S
C730        C731   1.409       .  A
C731        C732   1.404       .  A
C731        H736   1.083       .  S
C732        C733   1.406       .  A
C732        H737   1.082       .  S
C733        C734   1.404       .  A
C734        H738   1.084       .  S
C735        C740   1.408       .  A
C735        C744   1.408       .  A
C740        C741   1.401       .  A
C740        H745   1.082       .  S
C741        C742   1.406       .  A
C741        H746   1.084       .  S
C742        C743   1.405       .  A
C743        C744   1.399       .  A
C743        H747   1.082       .  S
C744        H748   1.083       .  S
C749        C750   1.411       .  A
C749        C754   1.403       .  A
C749        H759   1.082       .  S
C750        C755   1.504       .  S
C750        C751   1.411       .  A
C751        C752   1.402       .  A
C751        H756   1.082       .  S
C752        C753   1.405       .  A
C752        H757   1.083       .  S
C753        C754   1.405       .  A
C754        H758   1.083       .  S
C755        C760   1.411       .  A
C755        C764   1.411       .  A
C760        C761   1.404       .  A
C760        H765   1.082       .  S
C761        C762   1.405       .  A
C761        H766   1.083       .  S
C762        C763   1.404       .  A
C763        C764   1.402       .  A
C763        H767   1.083       .  S
C764        H768   1.081       .  S
C769        C770   1.408       .  A
C769        C774   1.400       .  A
C769        H779   1.083       .  S
C770        C775   1.488       .  S
C770        C771   1.406       .  A
C771        C772   1.396       .  A
C771        H776   1.082       .  S
C772        C773   1.405       .  A
C772        H777   1.084       .  S
C773        C774   1.404       .  A
C774        H778   1.082       .  S
C775        C780   1.406       .  A
C775        C784   1.408       .  A
C780        C781   1.396       .  A
C780        H785   1.082       .  S
C781        C782   1.405       .  A
C781        H786   1.084       .  S
C782        C783   1.404       .  A
C783        C784   1.400       .  A
C783        H787   1.082       .  S
C784        H788   1.084       .  S
C789        C790   1.406       .  A
C789        C794   1.406       .  A
C789        H799   1.083       .  S
C790        C795   1.483       .  S
C790        C791   1.404       .  A
C791        C792   1.389       .  A
C791        H796   1.083       .  S
C792        C793   1.403       .  A
C792        H797   1.083       .  S
C793        C794   1.407       .  A
C794        H798   1.083       .  S
C795        C800   1.408       .  A
C795        C804   1.402       .  A
C800        C801   1.408       .  A
C800        H805   1.083       .  S
C801        C802   1.408       .  A
C801        H806   1.083       .  S
C802        C803   1.403       .  A
C803        C804   1.388       .  A
C803        H807   1.083       .  S
C804        H808   1.083       .  S
C809        C810   1.407       .  A
C809        C814   1.395       .  A
C809        H819   1.083       .  S
C810        C815   1.490       .  S
C810        C811   1.407       .  A
C811        C812   1.402       .  A
C811        H816   1.082       .  S
C812        C813   1.406       .  A
C812        H817   1.083       .  S
C813        C814   1.404       .  A
C814        H818   1.083       .  S
C815        C820   1.406       .  A
C815        C824   1.408       .  A
C820        C821   1.395       .  A
C820        H825   1.083       .  S
C821        C822   1.404       .  A
C821        H826   1.083       .  S
C822        C823   1.406       .  A
C823        C824   1.404       .  A
C823        H827   1.083       .  S
C824        H828   1.082       .  S
C829        C830   1.407       .  A
C829        C834   1.400       .  A
C829        H839   1.084   1_455  S
C830        C835   1.489       .  S
C830        C831   1.406       .  A
C831        C832   1.400       .  A
C831        H836   1.082       .  S
C832        C833   1.407       .  A
C832        H837   1.084       .  S
C833        C834   1.404       .  A
C834        H838   1.082       .  S
C835        C840   1.405   1_455  A
C835        C844   1.408       .  A
C840        C841   1.397       .  A
C840        H845   1.082       .  S
C841        C842   1.405       .  A
C841        H846   1.084       .  S
C842        C843   1.406   1_655  A
C843        C844   1.402       .  A
C843        H847   1.082       .  S
C844        H848   1.084       .  S
C849        C850   1.409       .  A
C849        C854   1.399       .  A
C849        H859   1.082       .  S
C850        C855   1.497   1_554  S
C850        C851   1.409   1_455  A
C851        C852   1.402       .  A
C851        H856   1.083       .  S
C852        C853   1.405       .  A
C852        H857   1.083       .  S
C853        C854   1.403   1_655  A
C854        H858   1.083       .  S
C855        C860   1.409       .  A
C855        C864   1.409       .  A
C860        C861   1.401       .  A
C860        H865   1.083   1_556  S
C861        C862   1.405       .  A
C861        H866   1.083       .  S
C862        C863   1.405       .  A
C863        C864   1.402       .  A
C863        H867   1.083       .  S
C864        H868   1.082   1_455  S
C869        C870   1.405       .  A
C869        C874   1.393       .  A
C869        H879   1.083       .  S
C870        C875   1.486       .  S
C870        C871   1.407       .  A
C871        C872   1.403       .  A
C871        H876   1.083       .  S
C872        C873   1.406       .  A
C872        H877   1.083       .  S
C873        C874   1.404       .  A
C874        H878   1.083       .  S
C875        C880   1.408       .  A
C875        C884   1.404       .  A
C880        C881   1.404       .  A
C880        H885   1.083       .  S
C881        C882   1.405       .  A
C881        H886   1.083       .  S
C882        C883   1.404       .  A
C883        C884   1.392       .  A
C883        H887   1.083       .  S
C884        H888   1.083       .  S
C889        C890   1.405       .  A
C889        C894   1.400       .  A
C889        H899   1.083       .  S
C890        C895   1.481       .  S
C890        C891   1.404       .  A
C891        C892   1.392       .  A
C891        H896   1.083       .  S
C892        C893   1.404       .  A
C892        H897   1.083       .  S
C893        C894   1.405       .  A
C894        H898   1.083       .  S
C895        C900   1.405       .  A
C895        C904   1.405       .  A
C900        C901   1.399       .  A
C900        H905   1.082       .  S
C901        C902   1.405       .  A
C901        H906   1.083       .  S
C902        C903   1.404       .  A
C903        C904   1.394       .  A
C903        H907   1.083       .  S
C904        H908   1.084       .  S
C909        C910   1.406       .  A
C909        C914   1.404       .  A
C909        H919   1.083       .  S
C910        C915   1.482       .  S
C910        C911   1.403       .  A
C911        C912   1.392       .  A
C911        H916   1.083       .  S
C912        C913   1.405       .  A
C912        H917   1.083       .  S
C913        C914   1.406       .  A
C914        H918   1.083       .  S
C915        C920   1.406       .  A
C915        C924   1.404       .  A
C920        C921   1.402       .  A
C920        H925   1.083       .  S
C921        C922   1.405       .  A
C921        H926   1.083       .  S
C922        C923   1.403       .  A
C923        C924   1.394       .  A
C923        H927   1.083       .  S
C924        H928   1.083       .  S
C929        C930   1.407       .  A
C929        C934   1.400       .  A
C929        H939   1.083       .  S
C930        C935   1.487       .  S
C930        C931   1.406       .  A
C931        C932   1.397       .  A
C931        H936   1.082       .  S
C932        C933   1.405       .  A
C932        H937   1.084       .  S
C933        C934   1.404       .  A
C934        H938   1.082       .  S
C935        C940   1.405       .  A
C935        C944   1.407       .  A
C940        C941   1.397       .  A
C940        H945   1.082       .  S
C941        C942   1.405       .  A
C941        H946   1.084       .  S
C942        C943   1.404       .  A
C943        C944   1.399       .  A
C943        H947   1.082       .  S
C944        H948   1.083       .  S
C949        C950   1.408       .  A
C949        C954   1.401       .  A
C949        H959   1.082       .  S
C950        C955   1.495       .  S
C950        C951   1.408       .  A
C951        C952   1.399       .  A
C951        H956   1.083       .  S
C952        C953   1.404       .  A
C952        H957   1.082       .  S
C953        C954   1.406       .  A
C954        H958   1.084       .  S
C955        C960   1.407       .  A
C955        C964   1.409       .  A
C960        C961   1.398       .  A
C960        H965   1.082       .  S
C961        C962   1.404       .  A
C961        H966   1.083       .  S
C962        C963   1.407       .  A
C963        C964   1.403       .  A
C963        H967   1.082       .  S
C964        H968   1.083       .  S
C969        C970   1.407   1_554  A
C969        C974   1.397       .  A
C969        H979   1.083       .  S
C970        C975   1.491       .  S
C970        C971   1.407       .  A
C971        C972   1.403   1_556  A
C971        H976   1.082       .  S
C972        C973   1.406       .  A
C972        H977   1.083       .  S
C973        C974   1.405       .  A
C974        H978   1.083       .  S
C975        C980   1.405       .  A
C975        C984   1.409       .  A
C980        C981   1.394       .  A
C980        H985   1.083       .  S
C981        C982   1.404       .  A
C981        H986   1.083       .  S
C982        C983   1.407       .  A
C983        C984   1.405       .  A
C983        H987   1.083       .  S
C984        H988   1.083       .  S
C989        C990   1.404       .  A
C989        C994   1.396       .  A
C989        H999   1.082       .  S
C990        C995   1.490       .  S
C990        C991   1.409       .  A
C991        C992   1.404       .  A
C991        H996   1.084       .  S
C992        C993   1.406       .  A
C992        H997   1.082       .  S
C993        C994   1.406       .  A
C994        H998   1.084       .  S
C995       C1000   1.409       .  A
C995       C1004   1.405       .  A
C1000      C1001   1.402       .  A
C1000      H1005   1.084       .  S
C1001      C1002   1.405       .  A
C1001      H1006   1.082       .  S
C1002      C1003   1.405       .  A
C1003      C1004   1.397       .  A
C1003      H1007   1.084       .  S
C1004      H1008   1.082       .  S
C1009      C1010   1.406       .  A
C1009      C1014   1.399       .  A
C1009      H1019   1.083       .  S
C1010      C1015   1.487   1_554  S
C1010      C1011   1.407       .  A
C1011      C1012   1.398       .  A
C1011      H1016   1.083   1_554  S
C1012      C1013   1.405       .  A
C1012      H1017   1.084       .  S
C1013      C1014   1.405       .  A
C1014      H1018   1.082       .  S
C1015      C1020   1.405       .  A
C1015      C1024   1.407       .  A
C1020      C1021   1.398       .  A
C1020      H1025   1.083       .  S
C1021      C1022   1.405       .  A
C1021      H1026   1.082       .  S
C1022      C1023   1.406       .  A
C1023      C1024   1.400       .  A
C1023      H1027   1.083       .  S
C1024      H1028   1.083       .  S
C1029      C1030   1.402       .  A
C1029      C1034   1.391       .  A
C1029      H1039   1.083       .  S
C1030      C1035   1.479       .  S
C1030      C1031   1.406       .  A
C1031      C1032   1.402       .  A
C1031      H1036   1.083       .  S
C1032      C1033   1.406       .  A
C1032      H1037   1.083       .  S
C1033      C1034   1.405       .  A
C1034      H1038   1.083       .  S
C1035      C1040   1.404       .  A
C1035      C1044   1.403       .  A
C1040      C1041   1.395       .  A
C1040      H1045   1.084       .  S
C1041      C1042   1.404       .  A
C1041      H1046   1.083       .  S
C1042      C1043   1.406       .  A
C1043      C1044   1.400       .  A
C1043      H1047   1.083       .  S
C1044      H1048   1.083       .  S
C1049      C1050   1.409       .  A
C1049      C1054   1.400       .  A
C1049      H1059   1.083       .  S
C1050      C1055   1.492       .  S
C1050      C1051   1.407       .  A
C1051      C1052   1.397       .  A
C1051      H1056   1.082       .  S
C1052      C1053   1.403       .  A
C1052      H1057   1.083       .  S
C1053      C1054   1.405       .  A
C1054      H1058   1.083       .  S
C1055      C1060   1.407       .  A
C1055      C1064   1.409       .  A
C1060      C1061   1.397       .  A
C1060      H1065   1.082       .  S
C1061      C1062   1.403       .  A
C1061      H1066   1.083       .  S
C1062      C1063   1.404       .  A
C1063      C1064   1.400       .  A
C1063      H1067   1.083       .  S
C1064      H1068   1.083       .  S
C1069      C1070   1.408       .  A
C1069      C1074   1.403       .  A
C1069      H1079   1.084       .  S
C1070      C1075   1.489       .  S
C1070      C1071   1.405       .  A
C1071      C1072   1.397       .  A
C1071      H1076   1.082       .  S
C1072      C1073   1.406       .  A
C1072      H1077   1.084       .  S
C1073      C1074   1.406       .  A
C1074      H1078   1.082       .  S
C1075      C1080   1.405       .  A
C1075      C1084   1.409       .  A
C1080      C1081   1.396       .  A
C1080      H1085   1.082       .  S
C1081      C1082   1.405       .  A
C1081      H1086   1.084       .  S
C1082      C1083   1.404       .  A
C1083      C1084   1.401       .  A
C1083      H1087   1.082       .  S
C1084      H1088   1.084       .  S
C1089      C1090   1.409       .  A
C1089      C1094   1.404       .  A
C1089      H1099   1.082       .  S
C1090      C1095   1.491       .  S
C1090      C1091   1.407       .  A
C1091      C1092   1.392       .  A
C1091      H1096   1.083       .  S
C1092      C1093   1.403       .  A
C1092      H1097   1.083       .  S
C1093      C1094   1.405       .  A
C1094      H1098   1.083       .  S
C1095      C1100   1.409       .  A
C1095      C1104   1.406       .  A
C1100      C1101   1.405       .  A
C1100      H1105   1.082       .  S
C1101      C1102   1.406       .  A
C1101      H1106   1.083       .  S
C1102      C1103   1.403       .  A
C1103      C1104   1.391       .  A
C1103      H1107   1.083       .  S
C1104      H1108   1.083       .  S
C1109      C1110   1.406       .  A
C1109      C1114   1.392   1_556  A
C1109      H1119   1.082       .  S
C1110      C1115   1.491       .  S
C1110      C1111   1.409   1_556  A
C1111      C1112   1.405       .  A
C1111      H1116   1.083       .  S
C1112      C1113   1.406       .  A
C1112      H1117   1.082       .  S
C1113      C1114   1.404       .  A
C1114      H1118   1.083       .  S
C1115      C1120   1.406       .  A
C1115      C1124   1.409       .  A
C1120      C1121   1.391       .  A
C1120      H1125   1.082   1_556  S
C1121      C1122   1.403       .  A
C1121      H1126   1.083       .  S
C1122      C1123   1.405       .  A
C1123      C1124   1.404       .  A
C1123      H1127   1.083       .  S
C1124      H1128   1.082       .  S
C1129      C1130   1.406       .  A
C1129      C1134   1.396       .  A
C1129      H1139   1.083       .  S
C1130      C1135   1.489       .  S
C1130      C1131   1.407       .  A
C1131      C1132   1.404       .  A
C1131      H1136   1.083       .  S
C1132      C1133   1.406       .  A
C1132      H1137   1.083       .  S
C1133      C1134   1.404       .  A
C1134      H1138   1.083       .  S
C1135      C1140   1.405       .  A
C1135      C1144   1.408       .  A
C1140      C1141   1.394       .  A
C1140      H1145   1.083       .  S
C1141      C1142   1.404       .  A
C1141      H1146   1.083       .  S
C1142      C1143   1.406       .  A
C1143      C1144   1.405       .  A
C1143      H1147   1.083       .  S
C1144      H1148   1.083       .  S
C1149      C1150   1.407       .  A
C1149      C1154   1.395       .  A
C1149      H1159   1.082       .  S
C1150      C1155   1.496       .  S
C1150      C1151   1.409       .  A
C1151      C1152   1.406       .  A
C1151      H1156   1.082       .  S
C1152      C1153   1.407       .  A
C1152      H1157   1.083       .  S
C1153      C1154   1.404       .  A
C1154      H1158   1.083       .  S
C1155      C1160   1.406       .  A
C1155      C1164   1.411       .  A
C1160      C1161   1.393       .  A
C1160      H1165   1.082       .  S
C1161      C1162   1.404       .  A
C1161      H1166   1.084       .  S
C1162      C1163   1.406       .  A
C1163      C1164   1.408       .  A
C1163      H1167   1.082       .  S
C1164      H1168   1.083       .  S
C1169      C1170   1.408       .  A
C1169      C1174   1.398       .  A
C1169      H1179   1.082       .  S
C1170      C1175   1.500       .  S
C1170      C1171   1.412       .  A
C1171      C1172   1.404       .  A
C1171      H1176   1.081       .  S
C1172      C1173   1.404       .  A
C1172      H1177   1.083       .  S
C1173      C1174   1.404       .  A
C1174      H1178   1.083       .  S
C1175      C1180   1.412       .  A
C1175      C1184   1.408       .  A
C1180      C1181   1.403       .  A
C1180      H1185   1.082       .  S
C1181      C1182   1.402       .  A
C1181      H1186   1.083       .  S
C1182      C1183   1.406       .  A
C1183      C1184   1.400       .  A
C1183      H1187   1.083       .  S
C1184      H1188   1.082       .  S
C1189      C1190   1.409       .  A
C1189      C1194   1.402       .  A
C1189      H1199   1.082       .  S
C1190      C1195   1.496       .  S
C1190      C1191   1.408       .  A
C1191      C1192   1.400       .  A
C1191      H1196   1.082       .  S
C1192      C1193   1.405       .  A
C1192      H1197   1.083       .  S
C1193      C1194   1.406       .  A
C1194      H1198   1.083       .  S
C1195      C1200   1.409       .  A
C1195      C1204   1.409       .  A
C1200      C1201   1.401       .  A
C1200      H1205   1.082       .  S
C1201      C1202   1.405       .  A
C1201      H1206   1.083       .  S
C1202      C1203   1.404       .  A
C1203      C1204   1.399       .  A
C1203      H1207   1.083       .  S
C1204      H1208   1.082       .  S
C1209      C1210   1.405       .  A
C1209      C1214   1.395       .  A
C1209      H1219   1.083       .  S
C1210      C1215   1.488       .  S
C1210      C1211   1.408       .  A
C1211      C1212   1.403       .  A
C1211      H1216   1.083       .  S
C1212      C1213   1.405       .  A
C1212      H1217   1.083       .  S
C1213      C1214   1.405       .  A
C1214      H1218   1.083       .  S
C1215      C1220   1.406       .  A
C1215      C1224   1.407       .  A
C1220      C1221   1.395       .  A
C1220      H1225   1.083       .  S
C1221      C1222   1.405       .  A
C1221      H1226   1.083       .  S
C1222      C1223   1.405       .  A
C1223      C1224   1.402       .  A
C1223      H1227   1.083       .  S
C1224      H1228   1.083       .  S
C1229      C1230   1.405       .  A
C1229      C1234   1.400       .  A
C1229      H1239   1.084       .  S
C1230      C1235   1.481       .  S
C1230      C1231   1.404       .  A
C1231      C1232   1.399       .  A
C1231      H1236   1.083       .  S
C1232      C1233   1.405       .  A
C1232      H1237   1.084       .  S
C1233      C1234   1.405       .  A
C1234      H1238   1.083       .  S
C1235      C1240   1.404       .  A
C1235      C1244   1.404       .  A
C1240      C1241   1.399       .  A
C1240      H1245   1.083       .  S
C1241      C1242   1.404       .  A
C1241      H1246   1.083       .  S
C1242      C1243   1.407       .  A
C1243      C1244   1.400       .  A
C1243      H1247   1.083       .  S
C1244      H1248   1.083       .  S
C1249      C1250   1.407       .  A
C1249      C1254   1.399       .  A
C1249      H1259   1.083       .  S
C1250      C1255   1.496       .  S
C1250      C1251   1.410       .  A
C1251      C1252   1.404       .  A
C1251      H1256   1.082       .  S
C1252      C1253   1.406       .  A
C1252      H1257   1.083       .  S
C1253      C1254   1.406       .  A
C1254      H1258   1.083       .  S
C1255      C1260   1.410   1_556  A
C1255      C1264   1.407   1_556  A
C1260      C1261   1.403       .  A
C1260      H1265   1.082       .  S
C1261      C1262   1.405       .  A
C1261      H1266   1.083       .  S
C1262      C1263   1.405       .  A
C1263      C1264   1.400       .  A
C1263      H1267   1.083       .  S
C1264      H1268   1.083   1_554  S
C1269      C1270   1.406       .  A
C1269      C1274   1.395       .  A
C1269      H1279   1.083       .  S
C1270      C1275   1.491       .  S
C1270      C1271   1.409       .  A
C1271      C1272   1.406       .  A
C1271      H1276   1.083       .  S
C1272      C1273   1.405       .  A
C1272      H1277   1.083       .  S
C1273      C1274   1.403       .  A
C1274      H1278   1.084       .  S
C1275      C1280   1.406       .  A
C1275      C1284   1.408       .  A
C1280      C1281   1.395       .  A
C1280      H1285   1.083       .  S
C1281      C1282   1.405       .  A
C1281      H1286   1.083       .  S
C1282      C1283   1.407       .  A
C1283      C1284   1.406       .  A
C1283      H1287   1.083       .  S
C1284      H1288   1.083       .  S
C1289      C1290   1.409       .  A
C1289      C1294   1.407       .  A
C1289      H1299   1.082       .  S
C1290      C1295   1.497       .  S
C1290      C1291   1.408       .  A
C1291      C1292   1.396       .  A
C1291      H1296   1.083       .  S
C1292      C1293   1.405       .  A
C1292      H1297   1.083       .  S
C1293      C1294   1.407       .  A
C1294      H1298   1.083       .  S
C1295      C1300   1.412       .  A
C1295      C1304   1.405       .  A
C1300      C1301   1.409       .  A
C1300      H1305   1.083       .  S
C1301      C1302   1.406       .  A
C1301      H1306   1.082       .  S
C1302      C1303   1.405       .  A
C1303      C1304   1.393       .  A
C1303      H1307   1.084       .  S
C1304      H1308   1.082       .  S
C1309      C1310   1.411       .  A
C1309      C1314   1.404       .  A
C1309      H1319   1.082       .  S
C1310      C1315   1.505       .  S
C1310      C1311   1.410       .  A
C1311      C1312   1.402       .  A
C1311      H1316   1.082       .  S
C1312      C1313   1.406       .  A
C1312      H1317   1.083       .  S
C1313      C1314   1.405       .  A
C1314      H1318   1.083       .  S
C1315      C1320   1.410       .  A
C1315      C1324   1.411       .  A
C1320      C1321   1.402       .  A
C1320      H1325   1.082       .  S
C1321      C1322   1.406       .  A
C1321      H1326   1.083       .  S
C1322      C1323   1.406       .  A
C1323      C1324   1.404       .  A
C1323      H1327   1.083       .  S
C1324      H1328   1.082       .  S
C1329      C1330   1.410       .  A
C1329      C1334   1.397       .  A
C1329      H1339   1.081       .  S
C1330      C1335   1.504       .  S
C1330      C1331   1.413       .  A
C1331      C1332   1.403       .  A
C1331      H1336   1.081       .  S
C1332      C1333   1.402       .  A
C1332      H1337   1.083       .  S
C1333      C1334   1.403       .  A
C1334      H1338   1.083       .  S
C1335      C1340   1.413       .  A
C1335      C1344   1.410       .  A
C1340      C1341   1.400       .  A
C1340      H1345   1.080       .  S
C1341      C1342   1.401       .  A
C1341      H1346   1.083       .  S
C1342      C1343   1.405       .  A
C1343      C1344   1.400       .  A
C1343      H1347   1.083       .  S
C1344      H1348   1.082       .  S
C1349      C1350   1.405       .  A
C1349      C1354   1.394       .  A
C1349      H1359   1.083       .  S
C1350      C1355   1.489       .  S
C1350      C1351   1.407       .  A
C1351      C1352   1.406       .  A
C1351      H1356   1.083       .  S
C1352      C1353   1.407       .  A
C1352      H1357   1.083       .  S
C1353      C1354   1.405       .  A
C1354      H1358   1.083       .  S
C1355      C1360   1.404       .  A
C1355      C1364   1.408       .  A
C1360      C1361   1.393       .  A
C1360      H1365   1.083       .  S
C1361      C1362   1.405       .  A
C1361      H1366   1.083       .  S
C1362      C1363   1.407       .  A
C1363      C1364   1.407       .  A
C1363      H1367   1.083       .  S
C1364      H1368   1.083       .  S
C1369      C1370   1.405       .  A
C1369      C1374   1.405       .  A
C1369      H1379   1.082       .  S
C1370      C1375   1.486       .  S
C1370      C1371   1.405       .  A
C1371      C1372   1.395       .  A
C1371      H1376   1.084       .  S
C1372      C1373   1.404       .  A
C1372      H1377   1.083       .  S
C1373      C1374   1.408       .  A
C1374      H1378   1.083       .  S
C1375      C1380   1.406       .  A
C1375      C1384   1.404       .  A
C1380      C1381   1.406       .  A
C1380      H1385   1.083       .  S
C1381      C1382   1.408       .  A
C1381      H1386   1.083       .  S
C1382      C1383   1.404       .  A
C1383      C1384   1.393       .  A
C1383      H1387   1.083       .  S
C1384      H1388   1.083       .  S
C1389      C1390   1.409   1_565  A
C1389      C1394   1.401   1_565  A
C1389      H1399   1.084       .  S
C1390      C1395   1.490   1_545  S
C1390      C1391   1.405       .  A
C1391      C1392   1.396       .  A
C1391      H1396   1.082       .  S
C1392      C1393   1.405       .  A
C1392      H1397   1.084       .  S
C1393      C1394   1.404       .  A
C1394      H1398   1.082   1_545  S
C1395      C1400   1.406       .  A
C1395      C1404   1.409   1_565  A
C1400      C1401   1.397       .  A
C1400      H1405   1.082       .  S
C1401      C1402   1.405       .  A
C1401      H1406   1.084       .  S
C1402      C1403   1.404       .  A
C1403      C1404   1.400   1_565  A
C1403      H1407   1.082   1_565  S
C1404      H1408   1.083       .  S
C1409      C1410   1.407       .  A
C1409      C1414   1.400   1_556  A
C1409      H1419   1.083       .  S
C1410      C1415   1.493   1_545  S
C1410      C1411   1.407   1_546  A
C1411      C1412   1.401   1_565  A
C1411      H1416   1.083       .  S
C1412      C1413   1.405       .  A
C1412      H1417   1.083   1_545  S
C1413      C1414   1.406       .  A
C1414      H1418   1.083       .  S
C1415      C1420   1.408       .  A
C1415      C1424   1.407   1_565  A
C1420      C1421   1.400       .  A
C1420      H1425   1.083       .  S
C1421      C1422   1.405       .  A
C1421      H1426   1.083       .  S
C1422      C1423   1.405       .  A
C1423      C1424   1.400   1_565  A
C1423      H1427   1.083   1_565  S
C1424      H1428   1.083       .  S
C1429      C1430   1.405       .  A
C1429      C1434   1.392       .  A
C1429      H1439   1.083       .  S
C1430      C1435   1.489       .  S
C1430      C1431   1.408       .  A
C1431      C1432   1.405       .  A
C1431      H1436   1.082       .  S
C1432      C1433   1.406       .  A
C1432      H1437   1.083       .  S
C1433      C1434   1.404       .  A
C1434      H1438   1.083       .  S
C1435      C1440   1.406       .  A
C1435      C1444   1.407       .  A
C1440      C1441   1.394       .  A
C1440      H1445   1.083       .  S
C1441      C1442   1.404       .  A
C1441      H1446   1.083       .  S
C1442      C1443   1.405       .  A
C1443      C1444   1.403       .  A
C1443      H1447   1.083       .  S
C1444      H1448   1.083       .  S
C1449      C1450   1.407       .  A
C1449      C1454   1.405       .  A
C1449      H1459   1.082       .  S
C1450      C1455   1.490       .  S
C1450      C1451   1.406       .  A
C1451      C1452   1.395       .  A
C1451      H1456   1.083       .  S
C1452      C1453   1.404       .  A
C1452      H1457   1.083       .  S
C1453      C1454   1.407       .  A
C1454      H1458   1.083       .  S
C1455      C1460   1.408       .  A
C1455      C1464   1.405       .  A
C1460      C1461   1.406       .  A
C1460      H1465   1.083       .  S
C1461      C1462   1.407       .  A
C1461      H1466   1.083       .  S
C1462      C1463   1.404       .  A
C1463      C1464   1.394       .  A
C1463      H1467   1.083       .  S
C1464      H1468   1.083       .  S
C1469      C1470   1.403       .  A
C1469      C1474   1.392       .  A
C1469      H1479   1.083       .  S
C1470      C1475   1.488       .  S
C1470      C1471   1.408       .  A
C1471      C1472   1.408       .  A
C1471      H1476   1.083       .  S
C1472      C1473   1.408       .  A
C1472      H1477   1.083       .  S
C1473      C1474   1.404       .  A
C1474      H1478   1.083       .  S
C1475      C1480   1.406       .  A
C1475      C1484   1.406       .  A
C1480      C1481   1.395       .  A
C1480      H1485   1.083       .  S
C1481      C1482   1.404       .  A
C1481      H1486   1.083       .  S
C1482      C1483   1.407       .  A
C1483      C1484   1.405       .  A
C1483      H1487   1.083       .  S
C1484      H1488   1.083       .  S
C1489      C1490   1.409       .  A
C1489      C1494   1.401       .  A
C1489      H1499   1.082       .  S
C1490      C1495   1.497       .  S
C1490      C1491   1.409       .  A
C1491      C1492   1.400       .  A
C1491      H1496   1.082       .  S
C1492      C1493   1.405       .  A
C1492      H1497   1.083       .  S
C1493      C1494   1.405       .  A
C1494      H1498   1.083       .  S
C1495      C1500   1.409       .  A
C1495      C1504   1.409       .  A
C1500      C1501   1.399       .  A
C1500      H1505   1.082       .  S
C1501      C1502   1.405       .  A
C1501      H1506   1.083       .  S
C1502      C1503   1.405       .  A
C1503      C1504   1.402       .  A
C1503      H1507   1.083       .  S
C1504      H1508   1.082       .  S
C1509      C1510   1.406       .  A
C1509      C1514   1.396       .  A
C1509      H1519   1.082       .  S
C1510      C1515   1.491       .  S
C1510      C1511   1.409       .  A
C1511      C1512   1.402       .  A
C1511      H1516   1.083       .  S
C1512      C1513   1.405       .  A
C1512      H1517   1.083       .  S
C1513      C1514   1.405       .  A
C1514      H1518   1.084       .  S
C1515      C1520   1.406       .  A
C1515      C1524   1.408       .  A
C1520      C1521   1.400       .  A
C1520      H1525   1.082       .  S
C1521      C1522   1.407       .  A
C1521      H1526   1.083       .  S
C1522      C1523   1.404       .  A
C1523      C1524   1.400       .  A
C1523      H1527   1.082       .  S
C1524      H1528   1.083       .  S
C1529      C1530   1.406       .  A
C1529      C1534   1.405       .  A
C1529      H1539   1.083       .  S
C1530      C1535   1.488       .  S
C1530      C1531   1.406       .  A
C1531      C1532   1.393       .  A
C1531      H1536   1.083       .  S
C1532      C1533   1.405       .  A
C1532      H1537   1.083       .  S
C1533      C1534   1.407       .  A
C1534      H1538   1.083       .  S
C1535      C1540   1.409       .  A
C1535      C1544   1.403       .  A
C1540      C1541   1.407       .  A
C1540      H1545   1.083       .  S
C1541      C1542   1.407       .  A
C1541      H1546   1.083       .  S
C1542      C1543   1.403       .  A
C1543      C1544   1.391       .  A
C1543      H1547   1.083       .  S
C1544      H1548   1.083       .  S
C1549      C1550   1.408       .  A
C1549      C1554   1.402       .  A
C1549      H1559   1.084       .  S
C1550      C1555   1.492       .  S
C1550      C1551   1.405       .  A
C1551      C1552   1.400       .  A
C1551      H1556   1.082       .  S
C1552      C1553   1.406       .  A
C1552      H1557   1.084       .  S
C1553      C1554   1.405       .  A
C1554      H1558   1.082       .  S
C1555      C1560   1.405       .  A
C1555      C1564   1.409       .  A
C1560      C1561   1.396       .  A
C1560      H1565   1.082       .  S
C1561      C1562   1.405       .  A
C1561      H1566   1.084       .  S
C1562      C1563   1.406       .  A
C1563      C1564   1.404       .  A
C1563      H1567   1.082       .  S
C1564      H1568   1.084       .  S
C1569      C1570   1.409       .  A
C1569      C1574   1.399       .  A
C1569      H1579   1.081       .  S
C1570      C1575   1.499       .  S
C1570      C1571   1.410       .  A
C1571      C1572   1.401       .  A
C1571      H1576   1.082       .  S
C1572      C1573   1.405       .  A
C1572      H1577   1.083       .  S
C1573      C1574   1.404       .  A
C1574      H1578   1.083       .  S
C1575      C1580   1.410       .  A
C1575      C1584   1.410       .  A
C1580      C1581   1.400       .  A
C1580      H1585   1.082       .  S
C1581      C1582   1.404       .  A
C1581      H1586   1.083       .  S
C1582      C1583   1.404       .  A
C1583      C1584   1.400       .  A
C1583      H1587   1.083       .  S
C1584      H1588   1.081       .  S
C1589      C1590   1.408       .  A
C1589      C1594   1.409       .  A
C1589      H1599   1.083       .  S
C1590      C1595   1.489   1_545  S
C1590      C1591   1.404       .  A
C1591      C1592   1.391       .  A
C1591      H1596   1.083       .  S
C1592      C1593   1.403       .  A
C1592      H1597   1.084       .  S
C1593      C1594   1.408       .  A
C1594      H1598   1.083       .  S
C1595      C1600   1.404       .  A
C1595      C1604   1.408   1_556  A
C1600      C1601   1.392       .  A
C1600      H1605   1.083       .  S
C1601      C1602   1.404   1_556  A
C1601      H1606   1.083       .  S
C1602      C1603   1.409       .  A
C1603      C1604   1.410       .  A
C1603      H1607   1.082       .  S
C1604      H1608   1.083       .  S
C1609      C1610   1.405       .  A
C1609      C1614   1.393       .  A
C1609      H1619   1.083       .  S
C1610      C1615   1.485       .  S
C1610      C1611   1.407       .  A
C1611      C1612   1.403       .  A
C1611      H1616   1.083       .  S
C1612      C1613   1.406       .  A
C1612      H1617   1.083       .  S
C1613      C1614   1.404       .  A
C1614      H1618   1.083       .  S
C1615      C1620   1.405       .  A
C1615      C1624   1.407       .  A
C1620      C1621   1.392       .  A
C1620      H1625   1.083       .  S
C1621      C1622   1.404       .  A
C1621      H1626   1.083       .  S
C1622      C1623   1.405       .  A
C1623      C1624   1.403       .  A
C1623      H1627   1.083       .  S
C1624      H1628   1.083       .  S
C1629      C1630   1.406       .  A
C1629      C1634   1.396       .  A
C1629      H1639   1.083       .  S
C1630      C1635   1.487       .  S
C1630      C1631   1.407       .  A
C1631      C1632   1.400       .  A
C1631      H1636   1.083       .  S
C1632      C1633   1.404       .  A
C1632      H1637   1.083       .  S
C1633      C1634   1.404       .  A
C1634      H1638   1.083       .  S
C1635      C1640   1.406       .  A
C1635      C1644   1.407       .  A
C1640      C1641   1.394       .  A
C1640      H1645   1.083       .  S
C1641      C1642   1.404       .  A
C1641      H1646   1.083       .  S
C1642      C1643   1.405       .  A
C1643      C1644   1.403       .  A
C1643      H1647   1.083       .  S
C1644      H1648   1.082       .  S
C1649      C1650   1.405   1_554  A
C1649      C1654   1.396       .  A
C1649      H1659   1.082       .  S
C1650      C1655   1.482   1_565  S
C1650      C1651   1.404       .  A
C1651      C1652   1.401       .  A
C1651      H1656   1.084       .  S
C1652      C1653   1.407   1_556  A
C1652      H1657   1.083       .  S
C1653      C1654   1.402       .  A
C1654      H1658   1.084       .  S
C1655      C1660   1.403       .  A
C1655      C1664   1.406       .  A
C1660      C1661   1.397       .  A
C1660      H1665   1.084   1_556  S
C1661      C1662   1.405       .  A
C1661      H1666   1.082       .  S
C1662      C1663   1.406       .  A
C1663      C1664   1.401       .  A
C1663      H1667   1.084       .  S
C1664      H1668   1.082   1_545  S
C1669      C1670   1.405       .  A
C1669      C1674   1.390       .  A
C1669      H1679   1.082       .  S
C1670      C1675   1.489       .  S
C1670      C1671   1.410       .  A
C1671      C1672   1.406       .  A
C1671      H1676   1.083       .  S
C1672      C1673   1.405       .  A
C1672      H1677   1.083       .  S
C1673      C1674   1.402       .  A
C1674      H1678   1.083       .  S
C1675      C1680   1.406       .  A
C1675      C1684   1.408       .  A
C1680      C1681   1.392       .  A
C1680      H1685   1.083       .  S
C1681      C1682   1.403       .  A
C1681      H1686   1.083       .  S
C1682      C1683   1.406       .  A
C1683      C1684   1.404       .  A
C1683      H1687   1.083       .  S
C1684      H1688   1.082       .  S
C1689      C1690   1.410       .  A
C1689      C1694   1.403       .  A
C1689      H1699   1.083       .  S
C1690      C1695   1.502       .  S
C1690      C1691   1.410       .  A
C1691      C1692   1.402       .  A
C1691      H1696   1.081       .  S
C1692      C1693   1.405       .  A
C1692      H1697   1.084       .  S
C1693      C1694   1.406       .  A
C1694      H1698   1.082       .  S
C1695      C1700   1.410       .  A
C1695      C1704   1.409       .  A
C1700      C1701   1.402       .  A
C1700      H1705   1.081       .  S
C1701      C1702   1.406       .  A
C1701      H1706   1.084       .  S
C1702      C1703   1.406       .  A
C1703      C1704   1.403       .  A
C1703      H1707   1.082       .  S
C1704      H1708   1.083       .  S
C1709      C1710   1.407       .  A
C1709      C1714   1.403       .  A
C1709      H1719   1.082       .  S
C1710      C1715   1.487       .  S
C1710      C1711   1.404       .  A
C1711      C1712   1.397       .  A
C1711      H1716   1.084       .  S
C1712      C1713   1.406       .  A
C1712      H1717   1.082       .  S
C1713      C1714   1.406       .  A
C1714      H1718   1.084       .  S
C1715      C1720   1.407       .  A
C1715      C1724   1.404       .  A
C1720      C1721   1.404       .  A
C1720      H1725   1.084       .  S
C1721      C1722   1.406       .  A
C1721      H1726   1.082       .  S
C1722      C1723   1.405       .  A
C1723      C1724   1.396       .  A
C1723      H1727   1.084       .  S
C1724      H1728   1.082       .  S
C1729      C1730   1.405       .  A
C1729      C1734   1.392       .  A
C1729      H1739   1.083       .  S
C1730      C1735   1.490       .  S
C1730      C1731   1.408       .  A
C1731      C1732   1.405       .  A
C1731      H1736   1.082       .  S
C1732      C1733   1.406       .  A
C1732      H1737   1.083       .  S
C1733      C1734   1.403       .  A
C1734      H1738   1.083       .  S
C1735      C1740   1.405       .  A
C1735      C1744   1.408       .  A
C1740      C1741   1.392       .  A
C1740      H1745   1.083       .  S
C1741      C1742   1.404       .  A
C1741      H1746   1.083       .  S
C1742      C1743   1.406       .  A
C1743      C1744   1.406       .  A
C1743      H1747   1.083       .  S
C1744      H1748   1.083       .  S
C1749      C1750   1.407       .  A
C1749      C1754   1.403       .  A
C1749      H1759   1.082       .  S
C1750      C1755   1.486       .  S
C1750      C1751   1.404       .  A
C1751      C1752   1.394       .  A
C1751      H1756   1.084       .  S
C1752      C1753   1.405       .  A
C1752      H1757   1.083       .  S
C1753      C1754   1.405       .  A
C1754      H1758   1.083       .  S
C1755      C1760   1.406       .  A
C1755      C1764   1.406       .  A
C1760      C1761   1.395       .  A
C1760      H1765   1.083       .  S
C1761      C1762   1.404       .  A
C1761      H1766   1.082       .  S
C1762      C1763   1.407       .  A
C1763      C1764   1.402       .  A
C1763      H1767   1.083       .  S
C1764      H1768   1.082       .  S
C1769      C1770   1.403       .  A
C1769      C1774   1.391       .  A
C1769      H1779   1.083       .  S
C1770      C1775   1.485       .  S
C1770      C1771   1.409       .  A
C1771      C1772   1.405       .  A
C1771      H1776   1.083       .  S
C1772      C1773   1.405       .  A
C1772      H1777   1.083       .  S
C1773      C1774   1.404       .  A
C1774      H1778   1.083       .  S
C1775      C1780   1.407       .  A
C1775      C1784   1.405       .  A
C1780      C1781   1.395       .  A
C1780      H1785   1.083       .  S
C1781      C1782   1.405       .  A
C1781      H1786   1.083       .  S
C1782      C1783   1.405       .  A
C1783      C1784   1.401       .  A
C1783      H1787   1.082       .  S
C1784      H1788   1.083       .  S
C1789      C1790   1.406   1_565  A
C1789      C1794   1.399   1_565  A
C1789      H1799   1.083       .  S
C1790      C1795   1.483       .  S
C1790      C1791   1.403       .  A
C1791      C1792   1.399       .  A
C1791      H1796   1.083       .  S
C1792      C1793   1.407       .  A
C1792      H1797   1.083       .  S
C1793      C1794   1.404       .  A
C1794      H1798   1.083   1_545  S
C1795      C1800   1.407       .  A
C1795      C1804   1.402   1_545  A
C1800      C1801   1.402       .  A
C1800      H1805   1.083       .  S
C1801      C1802   1.405   1_545  A
C1801      H1806   1.083       .  S
C1802      C1803   1.406       .  A
C1803      C1804   1.396       .  A
C1803      H1807   1.083       .  S
C1804      H1808   1.083       .  S
C1809      C1810   1.408   1_564  A
C1809      C1814   1.401   1_565  A
C1809      H1819   1.082       .  S
C1810      C1815   1.494   1_545  S
C1810      C1811   1.408       .  A
C1811      C1812   1.400   1_556  A
C1811      H1816   1.083       .  S
C1812      C1813   1.405       .  A
C1812      H1817   1.083       .  S
C1813      C1814   1.405       .  A
C1814      H1818   1.083   1_545  S
C1815      C1820   1.408       .  A
C1815      C1824   1.408   1_565  A
C1820      C1821   1.401       .  A
C1820      H1825   1.083       .  S
C1821      C1822   1.406       .  A
C1821      H1826   1.083       .  S
C1822      C1823   1.405       .  A
C1823      C1824   1.401   1_565  A
C1823      H1827   1.083   1_565  S
C1824      H1828   1.082       .  S
C1829      C1830   1.405       .  A
C1829      C1834   1.393       .  A
C1829      H1839   1.083       .  S
C1830      C1835   1.486       .  S
C1830      C1831   1.407       .  A
C1831      C1832   1.405       .  A
C1831      H1836   1.083       .  S
C1832      C1833   1.407       .  A
C1832      H1837   1.083       .  S
C1833      C1834   1.403       .  A
C1834      H1838   1.083       .  S
C1835      C1840   1.403       .  A
C1835      C1844   1.408       .  A
C1840      C1841   1.391       .  A
C1840      H1845   1.083       .  S
C1841      C1842   1.404       .  A
C1841      H1846   1.083       .  S
C1842      C1843   1.408       .  A
C1843      C1844   1.407       .  A
C1843      H1847   1.083       .  S
C1844      H1848   1.083       .  S
C1849      C1850   1.406       .  A
C1849      C1854   1.391       .  A
C1849      H1859   1.082       .  S
C1850      C1855   1.493       .  S
C1850      C1851   1.410       .  A
C1851      C1852   1.405       .  A
C1851      H1856   1.082       .  S
C1852      C1853   1.406       .  A
C1852      H1857   1.083       .  S
C1853      C1854   1.402       .  A
C1854      H1858   1.083       .  S
C1855      C1860   1.407       .  A
C1855      C1864   1.410       .  A
C1860      C1861   1.393       .  A
C1860      H1865   1.082       .  S
C1861      C1862   1.403       .  A
C1861      H1866   1.084       .  S
C1862      C1863   1.405       .  A
C1863      C1864   1.405       .  A
C1863      H1867   1.082       .  S
C1864      H1868   1.083       .  S
C1869      C1870   1.409       .  A
C1869      C1874   1.404       .  A
C1869      H1879   1.083       .  S
C1870      C1875   1.493       .  S
C1870      C1871   1.405       .  A
C1871      C1872   1.396       .  A
C1871      H1876   1.082       .  S
C1872      C1873   1.405       .  A
C1872      H1877   1.083       .  S
C1873      C1874   1.406       .  A
C1874      H1878   1.083       .  S
C1875      C1880   1.407       .  A
C1875      C1884   1.408       .  A
C1880      C1881   1.402       .  A
C1880      H1885   1.083       .  S
C1881      C1882   1.406       .  A
C1881      H1886   1.083       .  S
C1882      C1883   1.404       .  A
C1883      C1884   1.399       .  A
C1883      H1887   1.083       .  S
C1884      H1888   1.082       .  S
C1889      C1890   1.411       .  A
C1889      C1894   1.402       .  A
C1889      H1899   1.082       .  S
C1890      C1895   1.498       .  S
C1890      C1891   1.408       .  A
C1891      C1892   1.397       .  A
C1891      H1896   1.082       .  S
C1892      C1893   1.403       .  A
C1892      H1897   1.083       .  S
C1893      C1894   1.404       .  A
C1894      H1898   1.083       .  S
C1895      C1900   1.408       .  A
C1895      C1904   1.410       .  A
C1900      C1901   1.399       .  A
C1900      H1905   1.082       .  S
C1901      C1902   1.405       .  A
C1901      H1906   1.083       .  S
C1902      C1903   1.404       .  A
C1903      C1904   1.401       .  A
C1903      H1907   1.083       .  S
C1904      H1908   1.082       .  S
