geometry optimzed in LAMMPS
_audit_creation_date              2020-12-01 
_audit_creation_method            'lammps2cif' 
_symmetry_space_group_name_H-M    'P1' 
_symmetry_Int_Tables_number       1 
_symmetry_cell_setting            triclinic 
loop_ 
_symmetry_equiv_pos_as_xyz 
  x,y,z 
_cell_length_a                    28.71067075 
_cell_length_b                    28.521551043854878 
_cell_length_c                    53.72999113501911 
_cell_angle_alpha                 89.91973057458728 
_cell_angle_beta                  89.99325518833353 
_cell_angle_gamma                 90.03013086007309 
loop_ 
_atom_site_label 
_atom_site_type_symbol 
_atom_site_fract_x 
_atom_site_fract_y 
_atom_site_fract_z 
_atom_site_charge 
C1          C  0.86954614  0.68954974  0.32457526     0.03200
C2          C  0.88934469  0.66501937  0.34456822    -0.13000
C3          C  0.86439494  0.62873614  0.35635176     0.00700
C4          C  0.82052842  0.61586675  0.34690612    -0.11500
C5          C  0.80045304  0.64067797  0.32707325     0.03100
C6          C  0.82473238  0.67817340  0.31649299    -0.10900
H7          H  0.92421317  0.67381350  0.35071804     0.08700
H8          H  0.80259419  0.58578692  0.35460034     0.06300
H9          H  0.80908831  0.69793190  0.30139800     0.06100
C10         C  0.70989971  0.73224306  0.11263224     0.03200
C11         C  0.68202611  0.76156863  0.09815037    -0.13000
C12         C  0.70039060  0.80238210  0.08724101     0.00700
C13         C  0.74608385  0.81636286  0.09385466    -0.11500
C14         C  0.77363795  0.78781454  0.10951387     0.03100
C15         C  0.75594219  0.74446646  0.11742968    -0.10900
H16         H  0.64555936  0.75284552  0.09576591     0.08700
H17         H  0.75922817  0.85002491  0.08780081     0.06300
H18         H  0.77640047  0.72253089  0.12979492     0.06100
C19         C  0.35435261  0.71471010  0.33734129     0.03200
C20         C  0.38142626  0.74153228  0.35382282    -0.13000
C21         C  0.36581084  0.78527264  0.36237966     0.00700
C22         C  0.32286017  0.80248965  0.35373089    -0.11500
C23         C  0.29669001  0.77704296  0.33634241     0.03100
C24         C  0.31214154  0.73295460  0.32852767    -0.10900
H25         H  0.41602581  0.72954217  0.35860140     0.08700
H26         H  0.31114049  0.83705258  0.35927478     0.06300
H27         H  0.29339394  0.71489209  0.31389186     0.06100
C28         C  0.88964237  0.25065042  0.13463171     0.03200
C29         C  0.84690113  0.26930591  0.14198136    -0.13000
C30         C  0.82985105  0.31024068  0.13091825     0.00700
C31         C  0.85491798  0.33123241  0.11142512    -0.11500
C32         C  0.89900786  0.31392163  0.10448357     0.03100
C33         C  0.91609264  0.27355491  0.11641633    -0.10900
H34         H  0.82633340  0.25137479  0.15598597     0.08700
H35         H  0.83992417  0.36076810  0.10161514     0.06300
H36         H  0.94958565  0.25907581  0.11121898     0.06100
C37         C  0.14930685  0.86524597  0.27949688     0.42500
N38         N  0.12465416  0.91270046  0.25113622     0.01400
C39         C  0.91796907  0.03775810  0.24980040    -0.06500
H40         H  0.90168868  0.85795632  0.23948055     0.06900
C41         C  0.97745747  0.87702475  0.15603630    -0.06900
Co42       Co  0.03729666  0.96188133  0.26629655     0.74200
N43         N  0.95786487  0.90647108  0.24698067    -0.26000
Co44       Co  0.95713976  0.95749010  0.21870317     0.74100
C45         C  0.93253392  0.85818666  0.16483898     0.42600
N46         N  0.09625466  0.90656634  0.17734529     0.01000
N47         N  0.95996772  0.90664568  0.19172240     0.01100
N48         N  0.96714738  0.03789070  0.28258600    -0.46900
H49         H  0.08549771  0.88207612  0.30428624     0.06900
N50         N  0.98865788  0.90886197  0.26520782     0.01400
N51         N  0.95995482  0.00858098  0.19073125     0.01100
C52         C  0.94690112  0.06798059  0.16751188     0.42700
N53         N  0.12766532  0.90799977  0.19533490    -0.25500
C54         C  0.08842917  0.05330476  0.27908991    -0.06400
N55         N  0.15956320  0.88478330  0.25723077    -0.46600
N56         N  0.93156432  0.04477204  0.18784102    -0.46800
C57         C  0.12812250  0.07844220  0.26918681     0.42500
N58         N  0.98238322  0.01002359  0.26455203     0.01400
N59         N  0.12688543  0.00950557  0.19373279    -0.25500
N60         N  0.09188149  0.91376519  0.26826518    -0.26000
N61         N  0.09724160  0.00793227  0.17504876     0.01000
H62         H  0.19089063  0.04693782  0.19977621     0.06900
H63         H  0.01124155  0.05313056  0.14323561     0.06900
N64         N  0.95327548  0.00842553  0.24566932    -0.26100
N65         N  0.99160408  0.90679141  0.17399843    -0.25700
N66         N  0.11998994  0.01520214  0.24856785     0.01400
C67         C  0.94785654  0.84887165  0.27428273     0.42800
C68         C  0.15792745  0.87273010  0.19185725    -0.06900
N69         N  0.99350230  0.00784682  0.17391143    -0.25700
H70         H  0.99420163  0.87264453  0.13816372     0.06900
N71         N  0.98386534  0.87526293  0.28193580    -0.46900
H72         H  0.18734752  0.86483950  0.20367904     0.06900
C73         C  0.14885912  0.05829659  0.16397497     0.42600
C74         C  0.10413610  0.88491404  0.28692544    -0.06400
Co75       Co  0.12576254  0.96124197  0.22230793     0.73800
N76         N  0.10309268  0.87187396  0.16152332    -0.46600
C77         C  0.92678684  0.05701437  0.27434969     0.42900
N78         N  0.14618641  0.05336087  0.25021866    -0.46600
Co79       Co  0.04476196  0.95709357  0.17455178     0.73900
C80         C  0.98819101  0.04408059  0.15841614    -0.06900
C81         C  0.93054945  0.86898608  0.25099833    -0.06500
N82         N  0.08596407  0.01479448  0.26513448    -0.26000
N83         N  0.92457972  0.87885293  0.18685473    -0.46800
H84         H  0.88713621  0.04078369  0.23834974     0.06900
C85         C  0.16001918  0.04091513  0.18869060    -0.06900
Cl86       Cl  0.04126949  0.95924676  0.22044620    -0.49900
C87         C  0.14157314  0.84922870  0.16926703     0.42600
H88         H  0.06472313  0.06285836  0.29387866     0.06800
N89         N  0.10981959  0.03585410  0.15644497    -0.46600
C90         C  0.25268647  0.61036220  0.12681768     0.03200
C91         C  0.23729532  0.65393783  0.13522813    -0.13000
C92         C  0.20326496  0.67877673  0.12216921     0.00700
C93         C  0.18690013  0.66116527  0.09941203    -0.11500
C94         C  0.20161740  0.61697727  0.09071140     0.03100
C95         C  0.23346029  0.59113644  0.10514399    -0.10900
H96         H  0.25286586  0.66937012  0.15165921     0.08700
H97         H  0.16304508  0.68205214  0.08843077     0.06300
H98         H  0.24451295  0.55660456  0.09922420     0.06100
C99         C  0.77531791  0.13971000  0.32992248     0.03200
C100        C  0.74926949  0.11412057  0.34742651    -0.13000
C101        C  0.70878600  0.13301843  0.35810393     0.00700
C102        C  0.69631078  0.17932808  0.35237240    -0.11500
C103        C  0.72014670  0.20450520  0.33385630     0.03100
C104        C  0.75903896  0.18392057  0.32232723    -0.10900
H105        H  0.76003342  0.07891834  0.35236972     0.08700
H106        H  0.66726819  0.19556653  0.36185543     0.06300
H107        H  0.77628365  0.20198337  0.30715020     0.06100
C108        C  0.18244820  0.32200441  0.33537404     0.03200
C109        C  0.16143598  0.28425207  0.32253783    -0.13000
C110        C  0.18745418  0.25646239  0.30621685     0.00700
C111        C  0.23334091  0.26798527  0.30084601    -0.11500
C112        C  0.25448209  0.30601823  0.31243642     0.03100
C113        C  0.23002345  0.33146391  0.33057724    -0.10900
H114        H  0.12519497  0.27539359  0.32539112     0.08700
H115        H  0.25289783  0.24695278  0.28767142     0.06300
H116        H  0.24815286  0.35880116  0.34055720     0.06100
C117        C  0.36003329  0.14878073  0.07947173     0.03200
C118        C  0.37630219  0.19068439  0.09007601    -0.13000
C119        C  0.35457455  0.20967230  0.11107048     0.00700
C120        C  0.31383638  0.18920866  0.12034217    -0.11500
C121        C  0.29537695  0.14890206  0.10914570     0.03100
C122        C  0.31959083  0.12795768  0.08934209    -0.10900
H123        H  0.40771336  0.20710690  0.08304331     0.08700
H124        H  0.29823188  0.20298356  0.13717775     0.06300
H125        H  0.30765838  0.09455911  0.08219178     0.06100
C126        C  0.63524129  0.56851852  0.28050803     0.42500
N127        N  0.58145026  0.54840630  0.25525382     0.01400
C128        C  0.45861973  0.34249748  0.25139567    -0.06500
H129        H  0.63625601  0.31879078  0.24425496     0.06900
C130        C  0.63295515  0.41966935  0.16386826    -0.06900
Co131      Co  0.53736084  0.45858713  0.27043921     0.74200
N132        N  0.59512831  0.38057341  0.25044021    -0.26000
Co133      Co  0.54630641  0.37849751  0.22215024     0.74100
C134        C  0.65819492  0.37850188  0.17215443     0.42600
N135        N  0.58600330  0.52535230  0.18119320     0.01000
N136        N  0.59826266  0.38677188  0.19518905     0.01100
N137        N  0.45557220  0.39573619  0.28259400    -0.46900
H138        H  0.62476793  0.50286931  0.30473952     0.06900
N139        N  0.59166821  0.40991452  0.26927759     0.01400
N140        N  0.49728934  0.37778484  0.19400284     0.01100
C141        C  0.44625421  0.35387090  0.16783009     0.42700
N142        N  0.58236971  0.55448042  0.20006094    -0.25500
C143        C  0.45255829  0.51813427  0.28902484    -0.06400
N144        N  0.61264271  0.58165135  0.25959730    -0.46600
N145        N  0.46898802  0.34259419  0.18894414    -0.46800
C146        C  0.43006423  0.56150041  0.28065842     0.42500
N147        N  0.49111439  0.40356733  0.26755121     0.01400
N148        N  0.48180390  0.54433514  0.19862273    -0.25500
N149        N  0.58310748  0.51432795  0.27188791    -0.26000
N150        N  0.48611304  0.51421276  0.18016223     0.01000
H151        H  0.42997027  0.59691229  0.20701260     0.06900
H152        H  0.45777606  0.41874431  0.14278921     0.06900
N153        N  0.49387311  0.37310310  0.24912419    -0.26100
N154        N  0.59620359  0.42170882  0.17907110    -0.25700
N155        N  0.48024268  0.53958420  0.25347975     0.01400
C156        C  0.64517759  0.36126743  0.28015339     0.42800
C157        C  0.61031132  0.59104772  0.19625418    -0.06900
N158        N  0.49569457  0.41130054  0.17714049    -0.25700
H159        H  0.64024075  0.44329288  0.14858820     0.06900
N160        N  0.62005061  0.39868435  0.28780659    -0.46900
H161        H  0.61189580  0.62144107  0.20820589     0.06900
C162        C  0.42381927  0.55135355  0.17177528     0.42600
C163        C  0.61587948  0.52411196  0.28874257    -0.06400
Co164      Co  0.53147810  0.54744334  0.22689912     0.73800
N165        N  0.61408004  0.54151012  0.16357482    -0.46600
C166        C  0.43363383  0.35769760  0.27365992     0.42900
N167        N  0.44902823  0.57207326  0.25847547    -0.46600
Co168      Co  0.54115803  0.46815088  0.17885643     0.73900
C169        C  0.46439584  0.39936151  0.15971262    -0.06900
C170        C  0.62870648  0.34954743  0.25529812    -0.06500
N171        N  0.48330741  0.50747403  0.27103412    -0.26000
N172        N  0.63506705  0.35961144  0.19161436    -0.46800
H173        H  0.45128518  0.31364097  0.23896983     0.06900
C174        C  0.44287731  0.56936700  0.19504814    -0.06900
Cl175      Cl  0.53921095  0.46318060  0.22459516    -0.49900
C176        C  0.63106759  0.58297821  0.17179349     0.42600
H177        H  0.45006864  0.50082936  0.30689791     0.06800
N178        N  0.45215081  0.51713365  0.16368421    -0.46600
N179        N  0.53098780  0.96945037  0.50896957    -0.36600
N180        N  0.58838364  0.01396945  0.47193777    -0.57100
N181        N  0.53344990  0.96933159  0.43258513    -0.36600
N182        N  0.48007281  0.92119784  0.47019558    -0.57100
C183        C  0.56718727  0.98446240  0.52281830     0.27000
C184        C  0.50982712  0.93499726  0.52188726     0.27000
C185        C  0.57112695  0.98496259  0.42003455     0.27000
C186        C  0.51458174  0.93390233  0.41922579     0.27000
C187        C  0.59888525  0.03993303  0.49216291     0.35600
C188        C  0.59972414  0.04025283  0.45198361     0.35600
C189        C  0.45229934  0.91275497  0.48991072     0.35600
C190        C  0.45447550  0.91165956  0.44980631     0.35600
C191        C  0.56920387  0.95929664  0.54488457    -0.21900
C192        C  0.53283469  0.92782753  0.54428050    -0.21900
C193        C  0.57617001  0.95957453  0.39821036    -0.21900
C194        C  0.54050501  0.92704374  0.39776510    -0.21900
C195        C  0.61699993  0.08295088  0.48510758    -0.22900
C196        C  0.61755032  0.08317315  0.45952598    -0.22900
C197        C  0.40875490  0.89785780  0.48209756    -0.22900
C198        C  0.41013863  0.89713388  0.45657629    -0.22900
C199        C  0.59529741  0.02323085  0.51675173    -0.18300
C200        C  0.46787848  0.91331669  0.51471274    -0.18300
C201        C  0.47298546  0.91001422  0.42553733    -0.18300
C202        C  0.59887521  0.02350708  0.42732086    -0.18300
H203        H  0.59370771  0.96383434  0.56000052     0.14600
H204        H  0.52369164  0.90330804  0.55887894     0.14600
H205        H  0.60263308  0.96418464  0.38406830     0.14600
H206        H  0.53399398  0.90177423  0.38316692     0.14600
H207        H  0.62930982  0.11074408  0.49712512     0.12900
H208        H  0.63057794  0.11116445  0.44781514     0.12900
H209        H  0.37954752  0.88745304  0.49358795     0.12900
H210        H  0.38221258  0.88600514  0.44440498     0.12900
H211        H  0.51903608  0.98448597  0.49252140     0.26200
H212        H  0.51985334  0.98415354  0.44871033     0.26200
N213        N  0.04933941  0.45805289  0.00775583    -0.36600
N214        N  0.99004664  0.40489236  0.97380334    -0.57100
N215        N  0.03031842  0.45648120  0.93206750    -0.36600
N216        N  0.08957265  0.50965819  0.96638335    -0.57100
C217        C  0.03184618  0.42589357  0.02374121     0.27000
C218        C  0.08455838  0.48022782  0.01965129     0.27000
C219        C  0.99471104  0.43427541  0.92037375     0.27000
C220        C  0.04573525  0.49089235  0.91665070     0.27000
C221        C  0.97514387  0.38581385  0.99544032     0.35600
C222        C  0.96578890  0.38389407  0.95535478     0.35600
C223        C  0.11586013  0.52845655  0.98468456     0.35600
C224        C  0.10425753  0.52902914  0.94486256     0.35600
C225        C  0.05625573  0.42772966  0.04601516    -0.21900
C226        C  0.08936110  0.46204926  0.04345767    -0.21900
C227        C  0.98787316  0.45453458  0.89717606    -0.21900
C228        C  0.01997394  0.49009594  0.89482987    -0.21900
C229        C  0.94067077  0.35301440  0.99071865    -0.22900
C230        C  0.93591632  0.35061149  0.96542106    -0.22900
C231        C  0.14763047  0.55986469  0.97477410    -0.22900
C232        C  0.14104213  0.55944533  0.94953043    -0.22900
C233        C  0.99359098  0.39567224  0.01933446    -0.18300
C234        C  0.11175823  0.51760136  0.01021831    -0.18300
C235        C  0.08289531  0.52264223  0.92132775    -0.18300
C236        C  0.96820706  0.39594374  0.92972896    -0.18300
H237        H  0.05087576  0.40642603  0.06245487     0.14600
H238        H  0.11431620  0.47235277  0.05752960     0.14600
H239        H  0.96212291  0.44488985  0.88338843     0.14600
H240        H  0.02366978  0.51303024  0.87888504     0.14600
H241        H  0.92145120  0.33201413  0.00397209     0.12900
H242        H  0.91235389  0.32727847  0.95580854     0.12900
H243        H  0.17325378  0.58064529  0.98456473     0.12900
H244        H  0.16042255  0.58030424  0.93625884     0.12900
H245        H  0.03620518  0.46616787  0.99031680     0.26200
H246        H  0.04454833  0.44739458  0.94912028     0.26200
N247        N  0.02613678  0.46382047  0.43188354    -0.36600
N248        N  0.98169450  0.50828490  0.47424377    -0.57100
N249        N  0.04071924  0.45543050  0.50779134    -0.36600
N250        N  0.08929726  0.41510402  0.46491043    -0.57100
C251        C  0.00159981  0.49860224  0.42091714     0.27000
C252        C  0.05968514  0.45069431  0.41561883     0.27000
C253        C  0.02481218  0.48951305  0.52320585     0.27000
C254        C  0.07895711  0.43645566  0.51850375     0.27000
C255        C  0.95059765  0.51920873  0.45634131     0.35600
C256        C  0.96077421  0.51743458  0.49616563     0.35600
C257        C  0.10113512  0.39457393  0.44309776     0.35600
C258        C  0.10600273  0.38718870  0.48321293     0.35600
C259        C  0.01974558  0.50786149  0.39752333    -0.21900
C260        C  0.05599165  0.47722060  0.39402763    -0.21900
C261        C  0.05328810  0.49212500  0.54399341    -0.21900
C262        C  0.08747493  0.45852257  0.54104355    -0.21900
C263        C  0.90958375  0.53533387  0.46686765    -0.22900
C264        C  0.91604151  0.53422904  0.49220403    -0.22900
C265        C  0.12671796  0.35427917  0.44758372    -0.22900
C266        C  0.12868119  0.34888908  0.47290759    -0.22900
C267        C  0.96107680  0.51954686  0.43074330    -0.18300
C268        C  0.09078962  0.41291127  0.41922267    -0.18300
C269        C  0.10432677  0.39783712  0.50898439    -0.18300
C270        C  0.98384864  0.51628401  0.51932705    -0.18300
H271        H  0.00735286  0.53322355  0.38406639     0.14600
H272        H  0.07651429  0.47467456  0.37723272     0.14600
H273        H  0.04952628  0.51541426  0.55974972     0.14600
H274        H  0.11519108  0.45085120  0.55407806     0.14600
H275        H  0.87881596  0.54776635  0.45727827     0.12900
H276        H  0.89125148  0.54571623  0.50609491     0.12900
H277        H  0.14212408  0.33084989  0.43407794     0.12900
H278        H  0.14568957  0.32028925  0.48252020     0.12900
H279        H  0.01819442  0.44782579  0.44856415     0.26200
H280        H  0.02502422  0.44363306  0.49172520     0.26200
N281        N  0.54277714  0.97053291  0.93262476    -0.36600
N282        N  0.48856788  0.02572034  0.96773656    -0.57100
N283        N  0.53549834  0.97914029  0.00929871    -0.36600
N284        N  0.58482183  0.91946622  0.97387541    -0.57100
C285        C  0.51205520  0.99119249  0.91697695     0.27000
C286        C  0.56365741  0.93539431  0.91997135     0.27000
C287        C  0.49979375  0.00083126  0.02101990     0.27000
C288        C  0.55116478  0.94477050  0.02454796     0.27000
C289        C  0.47910023  0.04934591  0.94653895     0.35600
C290        C  0.47545621  0.05387428  0.98662892     0.35600
C291        C  0.60965351  0.90065028  0.95494102     0.35600
C292        C  0.60611222  0.90597917  0.99516176     0.35600
C293        C  0.51383179  0.96931919  0.89399386    -0.21900
C294        C  0.54677999  0.93472001  0.89573357    -0.21900
C295        C  0.49277877  0.98009044  0.04409628    -0.21900
C296        C  0.52536018  0.94480233  0.04635853    -0.21900
C297        C  0.45981562  0.09265051  0.95192919    -0.22900
C298        C  0.45758131  0.09559509  0.97738163    -0.22900
C299        C  0.64597758  0.87397833  0.96429644    -0.22900
C300        C  0.64448345  0.87829070  0.98963423    -0.22900
C301        C  0.48409181  0.03071026  0.92241384    -0.18300
C302        C  0.59895173  0.90538842  0.92932937    -0.18300
C303        C  0.58925812  0.91468006  0.01955333    -0.18300
C304        C  0.47534025  0.04050519  0.01193618    -0.11500
H305        H  0.49401130  0.97777157  0.87745811     0.14600
H306        H  0.55701995  0.91214980  0.88056205     0.14600
H307        H  0.46722931  0.98978532  0.05797820     0.14600
H308        H  0.52968172  0.92187858  0.06226059     0.14600
H309        H  0.44794777  0.11897836  0.93886361     0.12900
H310        H  0.44366032  0.12478319  0.98786010     0.12900
H311        H  0.67116615  0.85353510  0.95399495     0.12900
H312        H  0.66857404  0.86197630  0.00247454     0.12900
H313        H  0.55070467  0.98126652  0.95054434     0.26200
H314        H  0.55018357  0.98907446  0.99241733     0.26200
C315        C  0.70862893  0.73161825  0.82655480     0.03200
C316        C  0.68660874  0.75372151  0.84659166    -0.13000
C317        C  0.69796359  0.80039073  0.85284903     0.00700
C318        C  0.73572812  0.82173068  0.84023218    -0.11500
C319        C  0.76176343  0.79666106  0.82264780     0.03100
C320        C  0.74782664  0.75186104  0.81575909    -0.10900
H321        H  0.65920505  0.73512420  0.85623527     0.08700
H322        H  0.74498176  0.85792284  0.84363606     0.06300
H323        H  0.76610896  0.73360773  0.80099457     0.06100
C324        C  0.78794598  0.28275546  0.83238020     0.03200
C325        C  0.81273687  0.30605561  0.85124928    -0.13000
C326        C  0.85274644  0.28598406  0.86204065     0.00700
C327        C  0.86835361  0.24235488  0.85306954    -0.11500
C328        C  0.84586362  0.22000236  0.83310993     0.03100
C329        C  0.80556451  0.24036008  0.82295718    -0.10900
H330        H  0.80126398  0.34043898  0.85716802     0.08700
H331        H  0.89940161  0.22652772  0.86086730     0.06300
H332        H  0.78893359  0.22419000  0.80702174     0.06100
C333        C  0.38620032  0.11515210  0.83910220     0.03200
C334        C  0.39755696  0.16128889  0.83210104    -0.13000
C335        C  0.37491440  0.18302057  0.81202738     0.00700
C336        C  0.33757223  0.16024565  0.80055960    -0.11500
C337        C  0.32432279  0.11507115  0.80781497     0.03100
C338        C  0.34897794  0.09240683  0.82699966    -0.10900
H339        H  0.42423497  0.18010897  0.84222541     0.08700
H340        H  0.31871855  0.17775791  0.78574758     0.06300
H341        H  0.33909277  0.05721610  0.83248900     0.06100
C342        C  0.20719161  0.70300232  0.82716434     0.03200
C343        C  0.25274444  0.68638104  0.82396260    -0.13000
C344        C  0.26744727  0.64481896  0.83548363     0.00700
C345        C  0.23586886  0.62009946  0.85058902    -0.11500
C346        C  0.18895791  0.63411503  0.85239212     0.03100
C347        C  0.17512058  0.67605090  0.84079672    -0.10900
H348        H  0.27577878  0.70447155  0.81120195     0.08700
H349        H  0.24724941  0.58817663  0.85968495     0.06300
H350        H  0.13894973  0.68675065  0.84148147     0.06100
C351        C  0.21555882  0.28254578  0.57554340     0.03200
C352        C  0.20102435  0.23913110  0.58539105    -0.13000
C353        C  0.22653609  0.21712534  0.60449720     0.00700
C354        C  0.26681357  0.23918996  0.61369436    -0.11500
C355        C  0.28098113  0.28303036  0.60461890     0.03100
C356        C  0.25513403  0.30438968  0.58563147    -0.10900
H357        H  0.16856815  0.22387709  0.57913223     0.08700
H358        H  0.28544834  0.22363538  0.62918571     0.06300
H359        H  0.26490858  0.33914854  0.57933881     0.06100
C360        C  0.69074041  0.19503261  0.62291113     0.03200
C361        C  0.66911278  0.17110146  0.60330679    -0.13000
C362        C  0.68399528  0.12595970  0.59659116     0.00700
C363        C  0.72330357  0.10689423  0.60842341    -0.11500
C364        C  0.74694390  0.13238848  0.62673352     0.03100
C365        C  0.72934174  0.17530351  0.63471741    -0.10900
H366        H  0.64088527  0.18788901  0.59340177     0.08700
H367        H  0.73591588  0.07244829  0.60325883     0.06300
H368        H  0.74588865  0.19337793  0.65009040     0.06100
C369        C  0.42431602  0.56639549  0.78420553     0.42500
N370        N  0.44908811  0.52398357  0.75396639     0.01400
C371        C  0.64817426  0.38594365  0.75122176    -0.06500
H372        H  0.67645421  0.56164272  0.74131988     0.06900
C373        C  0.59428250  0.55045009  0.65715390    -0.06900
Co374      Co  0.53318638  0.46823255  0.76801478     0.74200
N375        N  0.61618562  0.51819040  0.74842427    -0.26000
Co376      Co  0.61301788  0.46852353  0.71980408     0.74100
C377        C  0.64072846  0.56686042  0.66460762     0.42600
N378        N  0.47762786  0.52995070  0.68030972     0.01000
N379        N  0.61291901  0.52044208  0.69272392     0.01100
N380        N  0.59861114  0.38801878  0.78375797    -0.46900
H381        H  0.48639999  0.54516238  0.80886458     0.06900
N382        N  0.58566254  0.51730547  0.76686228     0.01400
N383        N  0.60570206  0.41831627  0.69171781     0.01100
C384        C  0.61225644  0.35758703  0.66894196     0.42700
N385        N  0.44692600  0.53134618  0.69862765    -0.25500
C386        C  0.47478560  0.38210508  0.78130701    -0.06400
N387        N  0.41433591  0.55106044  0.76114297    -0.46600
N388        N  0.63194567  0.38079196  0.68811932    -0.46800
C389        C  0.43192356  0.36115918  0.77249129     0.42500
N390        N  0.58470190  0.41639418  0.76559406     0.01400
N391        N  0.43791913  0.42993213  0.69571959    -0.25500
N392        N  0.48166088  0.51970776  0.77110249    -0.26000
N393        N  0.46808951  0.42900388  0.67727020     0.01000
H394        H  0.37117313  0.39712116  0.70139569     0.06900
H395        H  0.54850465  0.37721675  0.64528101     0.06900
N396        N  0.61408758  0.41672313  0.74677190    -0.26100
N397        N  0.58017722  0.52189447  0.67562282    -0.25700
N398        N  0.44562196  0.42237016  0.75090175     0.01400
C399        C  0.63202732  0.57220985  0.77661441     0.42800
C400        C  0.42158916  0.57061667  0.69621132    -0.06900
N401        N  0.57092456  0.42098117  0.67568732    -0.25700
H402        H  0.57640977  0.55439415  0.63960344     0.06900
N403        N  0.59386639  0.54903709  0.78414348    -0.46900
H404        H  0.39327313  0.58141189  0.70817377     0.06900
C405        C  0.41321419  0.38283197  0.66575307     0.42600
C406        C  0.46920143  0.54557918  0.79095905    -0.06400
Co407      Co  0.44397844  0.47700882  0.72482443     0.73800
N408        N  0.47473253  0.56606392  0.66507862    -0.46600
C409        C  0.63823380  0.36702684  0.77583865     0.42900
N410        N  0.41553061  0.38740042  0.75345255    -0.46600
Co411      Co  0.52407825  0.47547949  0.67676027     0.73900
C412        C  0.57233778  0.38417538  0.66041424    -0.06900
C413        C  0.64683872  0.55264993  0.75281662    -0.06500
N414        N  0.48044456  0.41958949  0.76692984    -0.26000
N415        N  0.64950416  0.54619745  0.68676783    -0.46800
H416        H  0.67930161  0.38197525  0.74008063     0.06900
C417        C  0.40229975  0.40147158  0.69029579    -0.06900
Cl418      Cl  0.52857916  0.47236032  0.72237882    -0.49900
C419        C  0.44027254  0.59308522  0.67390138     0.42600
H420        H  0.49796001  0.37093955  0.79603494     0.06800
N421        N  0.45430986  0.40171267  0.65870628    -0.46600
C422        C  0.80013658  0.63422599  0.60873518     0.03200
C423        C  0.83232420  0.60766699  0.59497170    -0.13000
C424        C  0.87718370  0.62544206  0.58978313     0.00700
C425        C  0.88897903  0.67051892  0.59844075    -0.11500
C426        C  0.85586521  0.69888760  0.61056996     0.03100
C427        C  0.81122069  0.68041817  0.61508304    -0.10900
H428        H  0.82280188  0.57274683  0.58893846     0.08700
H429        H  0.92426260  0.68317372  0.59602096     0.06300
H430        H  0.78566847  0.70100981  0.62510108     0.06100
C431        C  0.30065861  0.80282878  0.61681053     0.03200
C432        C  0.32337692  0.76757150  0.63006634    -0.13000
C433        C  0.36826127  0.75392219  0.62341733     0.00700
C434        C  0.39060150  0.77534997  0.60328205    -0.11500
C435        C  0.36773811  0.81034543  0.58965286     0.03100
C436        C  0.32276031  0.82429306  0.59660560    -0.10900
H437        H  0.30629144  0.75108699  0.64581034     0.08700
H438        H  0.42600566  0.76550053  0.59868486     0.06300
H439        H  0.30539306  0.85238840  0.58666117     0.06100
C440        C  0.92030283  0.87322554  0.77155967     0.42500
N441        N  0.97684665  0.88612899  0.74658941     0.01400
C442        C  0.12543406  0.07435822  0.74448420    -0.06500
H443        H  0.94757010  0.11946974  0.73780178     0.06900
C444        C  0.94091326  0.02285198  0.65734062    -0.06900
Co445      Co  0.03204113  0.96907609  0.76271359     0.74200
N446        N  0.98386900  0.05454654  0.74411113    -0.26000
Co447      Co  0.03226737  0.05164506  0.71558725     0.74100
C448        C  0.91814135  0.06389696  0.66751058     0.42600
N449        N  0.97610018  0.91197613  0.67254686     0.01000
N450        N  0.97885670  0.04993154  0.68908735     0.01100
N451        N  0.12169631  0.01976970  0.77498223    -0.46900
H452        H  0.93962317  0.93586805  0.79631603     0.06900
N453        N  0.98369545  0.02407569  0.76254149     0.01400
N454        N  0.08040736  0.04876329  0.68705174     0.01100
C455        C  0.13235824  0.07137306  0.66073669     0.42700
N456        N  0.97615071  0.88184841  0.69116799    -0.25500
C457        C  0.11219427  0.90175631  0.77947751    -0.06400
N458        N  0.94143518  0.85729704  0.75073335    -0.46600
N459        N  0.11123638  0.08185665  0.68236821    -0.46800
C460        C  0.13079943  0.85687249  0.77061808     0.42500
N461        N  0.08500397  0.01779792  0.76020520     0.01400
N462        N  0.07693525  0.88022977  0.68978840    -0.25500
N463        N  0.97963574  0.91961913  0.76348933    -0.26000
N464        N  0.07675348  0.91238317  0.67204432     0.01000
H465        H  0.12167361  0.82062474  0.69672777     0.06900
H466        H  0.11536428  0.00908068  0.63466672     0.06900
N467        N  0.08599237  0.04927465  0.74217472    -0.26100
N468        N  0.97782518  0.01660304  0.67203809    -0.25700
N469        N  0.07835771  0.88155210  0.74526346     0.01400
C470        C  0.93382402  0.07666406  0.77328859     0.42800
C471        C  0.94434728  0.84880130  0.68694751    -0.06900
N472        N  0.07865977  0.01658627  0.66954711    -0.25700
H473        H  0.93085766  0.00077955  0.64189409     0.06900
N474        N  0.95499720  0.03659865  0.78074998    -0.46900
H475        H  0.93974362  0.81744635  0.69802524     0.06900
C476        C  0.13418208  0.86888430  0.66294638     0.42600
C477        C  0.94559795  0.91410821  0.78016037    -0.06400
Co478      Co  0.02698796  0.88152124  0.71824422     0.73800
N479        N  0.94630886  0.89981073  0.65475312    -0.46600
C480        C  0.14870934  0.05478241  0.76643550     0.42900
N481        N  0.10745988  0.84664599  0.74955908    -0.46600
Co482      Co  0.02731876  0.96436478  0.67098241     0.73900
C483        C  0.11033079  0.02773290  0.65196389    -0.06900
C484        C  0.95295540  0.08834013  0.74895197    -0.06500
N485        N  0.07999282  0.91415064  0.76257443    -0.26000
N486        N  0.94322035  0.07919101  0.68713226    -0.46800
H487        H  0.13648767  0.10248998  0.73235499     0.06900
C488        C  0.11229351  0.85059471  0.68545951    -0.06900
Cl489      Cl  0.02960147  0.96661987  0.71686988    -0.49900
C490        C  0.92407065  0.86080966  0.66297069     0.42600
H491        H  0.11951720  0.92040053  0.79654876     0.06800
N492        N  0.11051318  0.90702204  0.65566956    -0.46600
C493        C  0.25545585  0.86549794  0.63651880    -0.20300
C494        C  0.25612175  0.82049146  0.62617387    -0.06800
C495        C  0.21610395  0.79179924  0.62724343     0.14000
C496        C  0.17671275  0.80812268  0.63989004    -0.20300
C497        C  0.17653241  0.85269490  0.65072389    -0.06900
C498        C  0.21583020  0.88217856  0.64869453     0.14000
C499        C  0.21663680  0.93048623  0.66007938    -0.23700
H500        H  0.28653276  0.88707263  0.63565150     0.15300
H501        H  0.14575613  0.78643375  0.64102350     0.15300
C502        C  0.21457593  0.74473285  0.61453452    -0.23600
H503        H  0.25100329  0.94779412  0.65762790     0.05500
H504        H  0.20935902  0.92804822  0.68033896     0.08800
H505        H  0.19001799  0.95303473  0.65109298     0.08800
H506        H  0.24035952  0.72052178  0.62294091     0.08700
H507        H  0.22249091  0.74914719  0.59443654     0.08700
H508        H  0.17969999  0.72814886  0.61619450     0.05500
C509        C  0.91257265  0.81874099  0.62273203    -0.20300
C510        C  0.89857804  0.82656631  0.64741381    -0.06800
C511        C  0.86602008  0.79574656  0.65837004     0.14000
C512        C  0.85370275  0.75458853  0.64602015    -0.20300
C513        C  0.86900760  0.74511001  0.62168096    -0.06900
C514        C  0.89686121  0.77926869  0.60938679     0.14000
C515        C  0.90998705  0.77609829  0.58228618    -0.23700
H516        H  0.93673299  0.84286923  0.61396104     0.15300
H517        H  0.83205353  0.72951583  0.65583409     0.15300
C518        C  0.84320606  0.80531857  0.68306822    -0.23600
H519        H  0.90015610  0.80919229  0.57272708     0.05500
H520        H  0.89174067  0.74747865  0.57237472     0.08800
H521        H  0.94819200  0.77106850  0.58053089     0.08800
H522        H  0.85103143  0.84098076  0.69005743     0.08700
H523        H  0.85464215  0.77876068  0.69689924     0.08700
H524        H  0.80477833  0.80313590  0.68099819     0.05500
C525        C  0.41748069  0.67629728  0.67397976    -0.20300
C526        C  0.42251260  0.63428218  0.66081142    -0.06800
C527        C  0.41175469  0.63238932  0.63516395     0.14000
C528        C  0.39557696  0.67276922  0.62331545    -0.20300
C529        C  0.39003462  0.71460178  0.63648793    -0.06900
C530        C  0.40170216  0.71691154  0.66198305     0.14000
C531        C  0.39868052  0.76224135  0.67629169    -0.23700
H532        H  0.42657193  0.67743055  0.69355538     0.15300
H533        H  0.38604343  0.67151111  0.60379275     0.15300
C534        C  0.41529738  0.58755632  0.62041651    -0.23600
H535        H  0.41131281  0.75806142  0.69570693     0.05500
H536        H  0.36212267  0.77461942  0.67715109     0.08800
H537        H  0.42044863  0.78933072  0.66703977     0.08800
H538        H  0.39412437  0.55972752  0.62945026     0.08700
H539        H  0.45214588  0.57612750  0.61921766     0.08700
H540        H  0.40234680  0.59206238  0.60107970     0.05500
C541        C  0.72372389  0.56454040  0.65279255    -0.20300
C542        C  0.67931839  0.58323068  0.64818650    -0.06800
C543        C  0.67417664  0.61697101  0.62899054     0.14000
C544        C  0.71378831  0.63146670  0.61539851    -0.20300
C545        C  0.75813566  0.61256118  0.62023498    -0.06900
C546        C  0.76285258  0.57860461  0.63923066     0.14000
C547        C  0.80933643  0.55780172  0.64597804    -0.23700
H548        H  0.72814927  0.53845516  0.66728132     0.15300
H549        H  0.71041190  0.65844604  0.60128688     0.15300
C550        C  0.62787263  0.63937919  0.62341923    -0.23600
H551        H  0.80724859  0.53519872  0.66279245     0.05500
H552        H  0.83504810  0.58598407  0.64980679     0.08800
H553        H  0.82126883  0.53542913  0.63045167     0.08800
H554        H  0.61290315  0.65461034  0.64065954     0.08700
H555        H  0.60366411  0.61304686  0.61556253     0.08700
H556        H  0.63124773  0.66797102  0.60947567     0.05500
C557        C  0.62519752  0.23580093  0.64276783    -0.20300
C558        C  0.67033627  0.23832466  0.63289736    -0.06800
C559        C  0.69595671  0.28053636  0.63451873     0.14000
C560        C  0.67628384  0.31878569  0.64694076    -0.20300
C561        C  0.63151879  0.31589921  0.65709081    -0.06900
C562        C  0.60534735  0.27425648  0.65488433     0.14000
C563        C  0.55744932  0.26961260  0.66615516    -0.23700
H564        H  0.60596598  0.20314178  0.64156687     0.15300
H565        H  0.69552615  0.35139840  0.64837644     0.15300
C566        C  0.74307259  0.28602008  0.62244210    -0.23600
H567        H  0.54295137  0.23383937  0.66353432     0.05500
H568        H  0.53311860  0.29476124  0.65727661     0.08800
H569        H  0.55917657  0.27669962  0.68645037     0.08800
H570        H  0.74046085  0.27761816  0.60232004     0.08700
H571        H  0.76896161  0.26253973  0.63128281     0.08700
H572        H  0.75639497  0.32244089  0.62418629     0.05500
C573        C  0.79352043  0.10492507  0.66260214    -0.20300
C574        C  0.79108377  0.11525632  0.63710824    -0.06800
C575        C  0.83135071  0.11186825  0.62213949     0.14000
C576        C  0.87272489  0.09576150  0.63283038    -0.20300
C577        C  0.87497140  0.08459288  0.65817445    -0.06900
C578        C  0.83526410  0.08960256  0.67338612     0.14000
C579        C  0.83639935  0.07712596  0.70063935    -0.23700
H580        H  0.76254288  0.10847403  0.67398518     0.15300
H581        H  0.90361719  0.09199081  0.62139155     0.15300
C582        C  0.83121746  0.12661408  0.59516270    -0.23600
H583        H  0.80181465  0.08190940  0.70954690     0.05500
H584        H  0.86173857  0.09991219  0.71048206     0.08800
H585        H  0.84678839  0.03987234  0.70294406     0.08800
H586        H  0.81972316  0.16367577  0.59360495     0.08700
H587        H  0.80740773  0.10394629  0.58426110     0.08700
H588        H  0.86641431  0.12384782  0.58670894     0.05500
C589        C  0.20124376  0.18127958  0.64411734    -0.20300
C590        C  0.20674480  0.17643207  0.61834583    -0.06800
C591        C  0.19290073  0.13398911  0.60691171     0.14000
C592        C  0.17019565  0.09937774  0.62126882    -0.20300
C593        C  0.16190698  0.10571560  0.64688192    -0.06900
C594        C  0.17999299  0.14653811  0.65859284     0.14000
C595        C  0.17751176  0.15457784  0.68634283    -0.23700
H596        H  0.21265982  0.21339258  0.65301280     0.15300
H597        H  0.15814502  0.06770391  0.61224910     0.15300
C598        C  0.20337033  0.12429695  0.57991931    -0.23600
H599        H  0.19787017  0.18585530  0.69212284     0.05500
H600        H  0.19224038  0.12390421  0.69636271     0.08800
H601        H  0.14100280  0.16090956  0.69217544     0.08800
H602        H  0.24130564  0.12831543  0.57649489     0.08700
H603        H  0.18392292  0.14864945  0.56768588     0.08700
H604        H  0.19331157  0.08806146  0.57460046     0.05500
C605        C  0.39333131  0.31614696  0.63826687    -0.20300
C606        C  0.38056238  0.35932911  0.64862006    -0.06800
C607        C  0.33713015  0.37942852  0.64229460     0.14000
C608        C  0.30634838  0.35429599  0.62708987    -0.20300
C609        C  0.31793679  0.30983409  0.61774330    -0.06900
C610        C  0.36273023  0.29122555  0.62273452     0.14000
C611        C  0.37980599  0.24587865  0.61165279    -0.23700
H612        H  0.42726909  0.30150525  0.64253374     0.15300
H613        H  0.27228962  0.36889037  0.62311160     0.15300
C614        C  0.32324518  0.42767965  0.65104056    -0.23600
H615        H  0.41286332  0.25230692  0.60146788     0.05500
H616        H  0.35496638  0.23040779  0.59819469     0.08800
H617        H  0.38636779  0.22008908  0.62674615     0.08800
H618        H  0.35035125  0.45356123  0.64564420     0.08700
H619        H  0.31866421  0.42793416  0.67150885     0.08700
H620        H  0.28974640  0.43911610  0.64266243     0.05500
C621        C  0.30779301  0.57733724  0.81654737    -0.20300
C622        C  0.31138462  0.62208136  0.82718194    -0.06800
C623        C  0.35513190  0.64513604  0.82707322     0.14000
C624        C  0.39270665  0.62483032  0.81409796    -0.20300
C625        C  0.38737863  0.58224971  0.80140738    -0.06900
C626        C  0.34511861  0.55702374  0.80377127     0.14000
C627        C  0.33879644  0.50871648  0.79279678    -0.23700
H628        H  0.27467337  0.55913023  0.81700985     0.15300
H629        H  0.42569475  0.64320570  0.81294107     0.15300
C630        C  0.36266984  0.69044037  0.84091594    -0.23600
H631        H  0.30493426  0.49292764  0.79829653     0.05500
H632        H  0.36691309  0.48512797  0.79948324     0.08800
H633        H  0.33934354  0.51035457  0.77218852     0.08800
H634        H  0.35271374  0.68579879  0.86073373     0.08700
H635        H  0.34179887  0.71915734  0.83269548     0.08700
H636        H  0.39975283  0.70150846  0.84030399     0.05500
C637        C  0.15421710  0.82167408  0.81120388    -0.20300
C638        C  0.15649246  0.82088745  0.78506977    -0.06800
C639        C  0.18009628  0.78349162  0.77317495     0.14000
C640        C  0.19696506  0.74611621  0.78751424    -0.20300
C641        C  0.19164253  0.74531472  0.81344528    -0.06900
C642        C  0.17179180  0.78445854  0.82555915     0.14000
C643        C  0.17002299  0.78764435  0.85355308    -0.23700
H644        H  0.13720653  0.85064710  0.82049817     0.15300
H645        H  0.21337781  0.71659863  0.77833516     0.15300
C646        C  0.18820368  0.78268479  0.74543048    -0.23600
H647        H  0.15597921  0.82192995  0.85982709     0.05500
H648        H  0.20568640  0.78379972  0.86128225     0.08800
H649        H  0.14728166  0.75985380  0.86132845     0.08800
H650        H  0.20508244  0.81587490  0.73943784     0.08700
H651        H  0.15481556  0.77790982  0.73540253     0.08700
H652        H  0.21134732  0.75330092  0.73987923     0.05500
C653        C  0.44810456  0.27988762  0.78351852    -0.20300
C654        C  0.41485155  0.31514890  0.78032503    -0.06800
C655        C  0.36825321  0.30717258  0.78723862     0.14000
C656        C  0.35647412  0.26424872  0.79837457    -0.20300
C657        C  0.39017490  0.22909863  0.80224570    -0.06900
C658        C  0.43647894  0.23687309  0.79416819     0.14000
C659        C  0.47392764  0.20013887  0.79603624    -0.23700
H660        H  0.48379444  0.28630232  0.77781903     0.15300
H661        H  0.32079535  0.25802566  0.80409738     0.15300
C662        C  0.33145691  0.34413489  0.78351287    -0.23600
H663        H  0.50613651  0.21071129  0.78603021     0.05500
H664        H  0.46164010  0.16673434  0.78773552     0.08800
H665        H  0.48371411  0.19523295  0.81575029     0.08800
H666        H  0.32800051  0.35220874  0.76337987     0.08700
H667        H  0.34122000  0.37654581  0.79368930     0.08700
H668        H  0.29692973  0.33232039  0.79043227     0.05500
C669        C  0.23080458  0.08012392  0.76119418    -0.20300
C670        C  0.19434851  0.06757741  0.77723595    -0.06800
C671        C  0.20228998  0.06685937  0.80325401     0.14000
C672        C  0.24589195  0.08045919  0.81252785    -0.20300
C673        C  0.28212138  0.09388491  0.79654539    -0.06900
C674        C  0.27490763  0.09218141  0.77044654     0.14000
C675        C  0.31303820  0.10177282  0.75180481    -0.23700
H676        H  0.22520656  0.07949188  0.74123594     0.15300
H677        H  0.25126520  0.08218733  0.83247944     0.15300
C678        C  0.16448941  0.05390914  0.82150664    -0.23600
H679        H  0.30415171  0.13340056  0.74070909     0.05500
H680        H  0.34757309  0.10700606  0.76056812     0.08800
H681        H  0.31638755  0.07137646  0.73903703     0.08800
H682        H  0.15472919  0.01653376  0.81916317     0.08700
H683        H  0.13351630  0.07652709  0.81851320     0.08700
H684        H  0.17601159  0.05850977  0.84108656     0.05500
C685        C  0.91456073  0.18622028  0.81192700    -0.20300
C686        C  0.86872719  0.17977672  0.82036793    -0.06800
C687        C  0.84559510  0.13707643  0.81490772     0.14000
C688        C  0.86788550  0.10346176  0.79985045    -0.20300
C689        C  0.91288374  0.11117047  0.79051524    -0.06900
C690        C  0.93697172  0.15255371  0.79721134     0.14000
C691        C  0.98652628  0.16146443  0.78910700    -0.23700
H692        H  0.93251007  0.21867923  0.81620776     0.15300
H693        H  0.84981523  0.07127078  0.79516170     0.15300
C694        C  0.79806894  0.12539998  0.82507297    -0.23600
H695        H  0.00097210  0.19372562  0.79772167     0.05500
H696        H  0.98826008  0.16624939  0.76866248     0.08800
H697        H  0.00896562  0.13156395  0.79471975     0.08800
H698        H  0.77294994  0.12169779  0.80949114     0.08700
H699        H  0.78478490  0.15225409  0.83814549     0.08700
H700        H  0.79977618  0.09173430  0.83544100     0.05500
C701        C  0.75094194  0.35156587  0.81194579    -0.20300
C702        C  0.74658395  0.30528540  0.82059353    -0.06800
C703        C  0.70378631  0.28137373  0.81687164     0.14000
C704        C  0.66851954  0.30265572  0.80259174    -0.20300
C705        C  0.67420786  0.34782182  0.79276229    -0.06900
C706        C  0.71511549  0.37339283  0.79847212     0.14000
C707        C  0.72102524  0.42399379  0.79082924    -0.23700
H708        H  0.78314537  0.37044666  0.81518325     0.15300
H709        H  0.63649365  0.28368828  0.79896130     0.15300
C710        C  0.69354557  0.23410660  0.82820781    -0.23600
H711        H  0.75337482  0.43943600  0.79866132     0.05500
H712        H  0.69113502  0.44498902  0.79772800     0.08800
H713        H  0.72330053  0.42708386  0.77031521     0.08800
H714        H  0.72138200  0.22172938  0.84087391     0.08700
H715        H  0.68857383  0.20781303  0.81322475     0.08700
H716        H  0.66110318  0.23629644  0.83940456     0.05500
C717        C  0.68532782  0.64789851  0.82668422    -0.20300
C718        C  0.68725126  0.69101986  0.81426128    -0.06800
C719        C  0.66926754  0.69523196  0.78982068     0.14000
C720        C  0.65272243  0.65529376  0.77772426    -0.20300
C721        C  0.65172610  0.61208906  0.78990897    -0.06900
C722        C  0.66703337  0.60822951  0.81480748     0.14000
C723        C  0.66505357  0.56221285  0.82858637    -0.23700
H724        H  0.69848426  0.64528172  0.84554431     0.15300
H725        H  0.63935924  0.65796126  0.75889497     0.15300
C726        C  0.66578829  0.74201645  0.77677268    -0.23600
H727        H  0.67989805  0.56519731  0.84760758     0.05500
H728        H  0.68519593  0.53525744  0.81828888     0.08800
H729        H  0.62834193  0.55052660  0.83043118     0.08800
H730        H  0.70093079  0.75643959  0.77301302     0.08700
H731        H  0.64589466  0.76696649  0.78853235     0.08700
H732        H  0.64753524  0.73904007  0.75861621     0.05500
C733        C  0.79950901  0.82607394  0.78439780    -0.20300
C734        C  0.80224000  0.81766200  0.81007462    -0.06800
C735        C  0.84447767  0.82544943  0.82280747     0.14000
C736        C  0.88272184  0.84327201  0.80964331    -0.20300
C737        C  0.87993781  0.85189376  0.78398458    -0.06900
C738        C  0.83805579  0.84294378  0.77116037     0.14000
C739        C  0.83375728  0.85203880  0.74370446    -0.23700
H740        H  0.76710262  0.81920559  0.77470766     0.15300
H741        H  0.91517029  0.84995239  0.81933373     0.15300
C742        C  0.84965452  0.81348657  0.84999375    -0.23600
H743        H  0.79834495  0.84374019  0.73663734     0.05500
H744        H  0.85908110  0.82963556  0.73372161     0.08800
H745        H  0.84122247  0.88948021  0.73964441     0.08800
H746        H  0.84186096  0.77574457  0.85295082     0.08700
H747        H  0.82530942  0.83493829  0.86126276     0.08700
H748        H  0.88556764  0.82029544  0.85677563     0.05500
C749        C  0.48357411  0.07498024  0.88257747    -0.20300
C750        C  0.45816062  0.05318760  0.90156642    -0.06800
C751        C  0.40926044  0.04935254  0.89937391     0.14000
C752        C  0.38676424  0.06975114  0.87882536    -0.20300
C753        C  0.41215261  0.09169289  0.85969480    -0.06900
C754        C  0.46154655  0.09205624  0.86116273     0.14000
C755        C  0.49251423  0.10676489  0.83995100    -0.23700
H756        H  0.52126755  0.07614750  0.88384926     0.15300
H757        H  0.34909577  0.06855290  0.87771889     0.15300
C758        C  0.38093795  0.02254473  0.91825426    -0.23600
H759        H  0.51807261  0.07851206  0.83600270     0.05500
H760        H  0.51186780  0.13900830  0.84512231     0.08800
H761        H  0.47295897  0.11238938  0.82248516     0.08800
H762        H  0.38341321  0.03947836  0.93676209     0.08700
H763        H  0.39400770  0.98599094  0.91959423     0.08700
H764        H  0.34353940  0.02111578  0.91302838     0.05500
C765        C  0.60278223  0.84068349  0.89834069    -0.20300
C766        C  0.62568851  0.87681954  0.91103565    -0.06800
C767        C  0.67177241  0.88838752  0.90436432     0.14000
C768        C  0.69485661  0.86116088  0.88651866    -0.20300
C769        C  0.67128185  0.82678557  0.87243030    -0.06900
C770        C  0.62318135  0.81897631  0.87762657     0.14000
C771        C  0.59041618  0.79307792  0.86048901    -0.23700
H772        H  0.56672054  0.83317960  0.90289399     0.15300
H773        H  0.73144750  0.86789604  0.88335953     0.15300
C774        C  0.69605158  0.93067484  0.91514805    -0.23600
H775        H  0.55817244  0.81400908  0.85777252     0.05500
H776        H  0.58064765  0.75882734  0.86883894     0.08800
H777        H  0.60492628  0.78812063  0.84158022     0.08800
H778        H  0.70094297  0.92678069  0.93547567     0.08700
H779        H  0.67499061  0.96257080  0.91143760     0.08700
H780        H  0.73096523  0.93606247  0.90670818     0.05500
C781        C  0.13866627  0.31292700  0.56093955    -0.20300
C782        C  0.18686035  0.30837845  0.55690041    -0.06800
C783        C  0.20722412  0.33222416  0.53645477     0.14000
C784        C  0.18031528  0.36380877  0.52258540    -0.20300
C785        C  0.13218993  0.36829947  0.52654593    -0.06900
C786        C  0.11089367  0.34143935  0.54558391     0.14000
C787        C  0.05883800  0.34161298  0.54937526    -0.23700
H788        H  0.12263818  0.29457825  0.57639713     0.15300
H789        H  0.19655379  0.38318844  0.50752314     0.15300
C790        C  0.25643392  0.32340462  0.52782430    -0.23600
H791        H  0.04802333  0.31623524  0.56397278     0.05500
H792        H  0.04111732  0.33173332  0.53177846     0.08800
H793        H  0.04680410  0.37675653  0.55529752     0.08800
H794        H  0.27350991  0.29416140  0.53788328     0.08700
H795        H  0.27754676  0.35572957  0.53011070     0.08700
H796        H  0.25605189  0.31358890  0.50782489     0.05500
C797        C  0.94389726  0.52336362  0.56047025    -0.20300
C798        C  0.96413083  0.54548638  0.53983776    -0.06800
C799        C  0.96175058  0.59490784  0.53789208     0.14000
C800        C  0.93435226  0.62022154  0.55486523    -0.20300
C801        C  0.91124167  0.59775629  0.57464331    -0.06900
C802        C  0.91934557  0.54918316  0.57845156     0.14000
C803        C  0.90478455  0.52408496  0.60179633    -0.23700
H804        H  0.94738482  0.48571641  0.56259633     0.15300
H805        H  0.92992410  0.65762589  0.55220176     0.15300
C806        C  0.98823521  0.62102212  0.51798267    -0.23600
H807        H  0.93469988  0.50387801  0.60932860     0.05500
H808        H  0.87582106  0.49950103  0.59766233     0.08800
H809        H  0.89450993  0.54898543  0.61657254     0.08800
H810        H  0.97544911  0.61140176  0.49921761     0.08700
H811        H  0.02585863  0.61241473  0.51938612     0.08700
H812        H  0.98442627  0.65958068  0.51999947     0.05500
C813        C  0.12830734  0.52920496  0.88213671    -0.20300
C814        C  0.10124770  0.55141188  0.90029650    -0.06800
C815        C  0.09637082  0.60072268  0.89965277     0.14000
C816        C  0.12408542  0.62695462  0.88318111    -0.20300
C817        C  0.15461771  0.60487601  0.86639439    -0.06900
C818        C  0.15341154  0.55522595  0.86450293     0.14000
C819        C  0.17694933  0.52849458  0.84384812    -0.23700
H820        H  0.13026470  0.49123495  0.88189968     0.15300
H821        H  0.12317513  0.66488506  0.88414767     0.15300
C822        C  0.06258703  0.62562460  0.91656997    -0.23600
H823        H  0.15128473  0.50480220  0.83485291     0.05500
H824        H  0.20581393  0.50704360  0.85155982     0.08800
H825        H  0.19055617  0.55168485  0.82898372     0.08800
H826        H  0.07196938  0.62025646  0.93636597     0.08700
H827        H  0.02691593  0.61186228  0.91335040     0.08700
H828        H  0.06213158  0.66398549  0.91299198     0.05500
C829        C  0.89007514  0.36934020  0.91426309    -0.20300
C830        C  0.93877973  0.36865240  0.91179764    -0.06800
C831        C  0.95902456  0.33957483  0.89348274     0.14000
C832        C  0.93011451  0.31352919  0.87757620    -0.20300
C833        C  0.88133114  0.31288053  0.88049574    -0.06900
C834        C  0.86147643  0.33965290  0.90007115     0.14000
C835        C  0.81117072  0.33554666  0.90785989    -0.23700
H836        H  0.87449677  0.39086378  0.92865231     0.15300
H837        H  0.94598570  0.29353209  0.86270057     0.15300
C838        C  0.01115131  0.33490389  0.89103593    -0.23600
H839        H  0.80939082  0.32770075  0.92809613     0.05500
H840        H  0.79250967  0.30668409  0.89836818     0.08800
H841        H  0.79289252  0.36917032  0.90426434     0.08800
H842        H  0.02618522  0.32303335  0.90900959     0.08700
H843        H  0.02692088  0.36894301  0.88572644     0.08700
H844        H  0.02091239  0.30892597  0.87656636     0.05500
C845        C  0.59133949  0.06890878  0.55585452    -0.20300
C846        C  0.61897260  0.04871368  0.53722778    -0.06800
C847        C  0.66792191  0.05156045  0.53891828     0.14000
C848        C  0.68789038  0.07801633  0.55810520    -0.20300
C849        C  0.66027380  0.09938949  0.57650699    -0.06900
C850        C  0.61129454  0.09299114  0.57590297     0.14000
C851        C  0.57990568  0.10840557  0.59690961    -0.23700
H852        H  0.55381013  0.06502044  0.55486628     0.15300
H853        H  0.72543968  0.08166470  0.55885971     0.15300
C854        C  0.69913885  0.02509572  0.52127456    -0.23600
H855        H  0.54407637  0.09427638  0.59471398     0.05500
H856        H  0.57666846  0.14702599  0.59745735     0.08800
H857        H  0.59370233  0.09530841  0.61492706     0.08800
H858        H  0.69470017  0.03801950  0.50197229     0.08700
H859        H  0.69052703  0.98715681  0.52199005     0.08700
H860        H  0.73646514  0.02914174  0.52626748     0.05500
C861        C  0.43515195  0.83926004  0.53100439    -0.20300
C862        C  0.44050632  0.88788158  0.53370462    -0.06800
C863        C  0.42046303  0.91098856  0.55433047     0.14000
C864        C  0.39739288  0.88441360  0.57233985    -0.20300
C865        C  0.39239125  0.83576553  0.56979864    -0.06900
C866        C  0.41049024  0.81290712  0.54858850     0.14000
C867        C  0.40237833  0.76142990  0.54384870    -0.23700
H868        H  0.45018581  0.82198821  0.51493356     0.15300
H869        H  0.38291022  0.90188742  0.58850425     0.15300
C870        C  0.42199290  0.96343906  0.55779507    -0.23600
H871        H  0.41627918  0.75051984  0.52545090     0.05500
H872        H  0.36442956  0.75392619  0.54405251     0.08800
H873        H  0.41995694  0.73980276  0.55817063     0.08800
H874        H  0.43840937  0.98218600  0.54200669     0.08700
H875        H  0.44163959  0.97189300  0.57501509     0.08700
H876        H  0.38593806  0.97708053  0.55963214     0.05500
C877        C  0.39797249  0.07078845  0.02545888    -0.20300
C878        C  0.44626634  0.06849589  0.02942576    -0.06800
C879        C  0.46642843  0.09572865  0.04847115     0.14000
C880        C  0.43742903  0.12144993  0.06436664    -0.20300
C881        C  0.38888203  0.12364495  0.06064596    -0.06900
C882        C  0.36940384  0.09977071  0.03998408     0.14000
C883        C  0.31959258  0.10599890  0.03170388    -0.23700
H884        H  0.38280585  0.05149114  0.01008018     0.15300
H885        H  0.45303818  0.13974660  0.07990588     0.15300
C886        C  0.51853510  0.09914151  0.05152241    -0.23600
H887        H  0.31894948  0.11620452  0.01174830     0.05500
H888        H  0.30116048  0.13410419  0.04192963     0.08800
H889        H  0.30036054  0.07248525  0.03397181     0.08800
H890        H  0.53440390  0.11183277  0.03390678     0.08700
H891        H  0.53344815  0.06448260  0.05634824     0.08700
H892        H  0.52829615  0.12404370  0.06651900     0.05500
C893        C  0.35945868  0.29225303  0.12545295    -0.20300
C894        C  0.37811457  0.24684520  0.12532854    -0.06800
C895        C  0.41849577  0.23682414  0.13933157     0.14000
C896        C  0.43975592  0.27275855  0.15283499    -0.20300
C897        C  0.42186987  0.31853077  0.15264755    -0.06900
C898        C  0.38107467  0.32849325  0.13889686     0.14000
C899        C  0.35931544  0.37652277  0.13901987    -0.23700
H900        H  0.32800897  0.29929063  0.11493260     0.15300
H901        H  0.47087765  0.26504772  0.16350657     0.15300
C902        C  0.43870621  0.18804666  0.14054176    -0.23600
H903        H  0.32583976  0.37703886  0.12866169     0.05500
H904        H  0.38287850  0.40213740  0.12995757     0.08800
H905        H  0.35224681  0.38760754  0.15845968     0.08800
H906        H  0.45055423  0.17695052  0.12182432     0.08700
H907        H  0.41198277  0.16308521  0.14747398     0.08700
H908        H  0.46919846  0.18622257  0.15322901     0.05500
C909        C  0.12139315  0.32452990  0.36888536    -0.20300
C910        C  0.15584830  0.34842966  0.35502904    -0.06800
C911        C  0.16492868  0.39608765  0.36121797     0.14000
C912        C  0.14614696  0.41486112  0.38320522    -0.20300
C913        C  0.11221408  0.39055777  0.39687567    -0.06900
C914        C  0.09742400  0.34615713  0.38848153     0.14000
C915        C  0.05557383  0.32197404  0.39967863    -0.23700
H916        H  0.11288182  0.28847635  0.36471534     0.15300
H917        H  0.15572602  0.45007356  0.38882699     0.15300
C918        C  0.19054621  0.42959191  0.34431740    -0.23600
H919        H  0.04747589  0.28861617  0.38995115     0.05500
H920        H  0.02466235  0.34515880  0.39803096     0.08800
H921        H  0.06141363  0.31362038  0.41955235     0.08800
H922        H  0.19636616  0.41511484  0.32545433     0.08700
H923        H  0.22428811  0.43972486  0.35285529     0.08700
H924        H  0.16926151  0.46172384  0.34163165     0.05500
C925        C  0.30454522  0.33476196  0.27862628    -0.20300
C926        C  0.30084413  0.32049170  0.30355420    -0.06800
C927        C  0.34125517  0.31653972  0.31831898     0.14000
C928        C  0.38450348  0.32836684  0.30787842    -0.20300
C929        C  0.38810377  0.34224720  0.28289057    -0.06900
C930        C  0.34774383  0.34555227  0.26803932     0.14000
C931        C  0.34975854  0.36187300  0.24135322    -0.23700
H932        H  0.27329047  0.33717211  0.26736011     0.15300
H933        H  0.41575792  0.32633984  0.31915446     0.15300
C934        C  0.33905872  0.29835469  0.34462271    -0.23600
H935        H  0.31450200  0.36422524  0.23293196     0.05500
H936        H  0.37036683  0.33682363  0.23006520     0.08800
H937        H  0.36600359  0.39716855  0.24036110     0.08800
H938        H  0.32337310  0.26275860  0.34476137     0.08700
H939        H  0.31771342  0.32209299  0.35630386     0.08700
H940        H  0.37424037  0.29596589  0.35312808     0.05500
C941        C  0.70206609  0.07841538  0.39404038    -0.20300
C942        C  0.67972183  0.10392622  0.37509436    -0.06800
C943        C  0.63088509  0.09860925  0.37185141     0.14000
C944        C  0.60558065  0.07153992  0.38897289    -0.20300
C945        C  0.62788801  0.04792369  0.40845983    -0.06900
C946        C  0.67691931  0.04952917  0.41032792     0.14000
C947        C  0.70289415  0.01966731  0.42890190    -0.23700
H948        H  0.73952799  0.08101133  0.39609659     0.15300
H949        H  0.56803692  0.06891986  0.38726773     0.15300
C950        C  0.60524149  0.11906343  0.34985592    -0.23600
H951        H  0.74120495  0.02307575  0.42666729     0.05500
H952        H  0.69356148  0.98224984  0.42613050     0.08800
H953        H  0.69420221  0.03003162  0.44820800     0.08800
H954        H  0.62319715  0.10932702  0.33230599     0.08700
H955        H  0.60281534  0.15764553  0.35139514     0.08700
H956        H  0.56896715  0.10565553  0.34872349     0.05500
C957        C  0.65300057  0.24989292  0.31783556    -0.20300
C958        C  0.70048410  0.24918985  0.32415690    -0.06800
C959        C  0.72819874  0.28915553  0.31885363     0.14000
C960        C  0.70902239  0.32621359  0.30498137    -0.20300
C961        C  0.66239702  0.32520300  0.29742151    -0.06900
C962        C  0.63348186  0.28758853  0.30482351     0.14000
C963        C  0.58218235  0.28652480  0.29863510    -0.23700
H964        H  0.63140054  0.21974513  0.32201644     0.15300
H965        H  0.73072213  0.35580171  0.29982151     0.15300
C966        C  0.77755747  0.29432856  0.32793071    -0.23600
H967        H  0.56455432  0.25564165  0.30702996     0.05500
H968        H  0.57700330  0.28456609  0.27821915     0.08800
H969        H  0.56500446  0.31854966  0.30593526     0.08800
H970        H  0.80178576  0.29474857  0.31182601     0.08700
H971        H  0.78789461  0.26598813  0.34089745     0.08700
H972        H  0.78108424  0.32783456  0.33826684     0.05500
C973        C  0.13307844  0.60114012  0.06374714    -0.20300
C974        C  0.18130127  0.59654290  0.06757391    -0.06800
C975        C  0.20776772  0.57013991  0.05015262     0.14000
C976        C  0.18455812  0.54422631  0.03171656    -0.20300
C977        C  0.13619435  0.54760066  0.02873323    -0.06900
C978        C  0.11056616  0.57819040  0.04414174     0.14000
C979        C  0.05928601  0.58650333  0.03995639    -0.23700
H980        H  0.11240386  0.62169842  0.07658367     0.15300
H981        H  0.20436387  0.52193333  0.01927867     0.15300
C982        C  0.26028510  0.57000166  0.04960455    -0.23600
H983        H  0.04507986  0.61296167  0.05306511     0.05500
H984        H  0.03944051  0.55351486  0.04263949     0.08800
H985        H  0.05363772  0.59960993  0.02072039     0.08800
H986        H  0.27344860  0.53447973  0.05430159     0.08700
H987        H  0.27587928  0.59603397  0.06241150     0.08700
H988        H  0.27244335  0.57943325  0.03062028     0.05500
C989        C  0.33973510  0.56727255  0.17459827    -0.20300
C990        C  0.37974607  0.56396433  0.15980234    -0.06800
C991        C  0.37688657  0.57186158  0.13390420     0.14000
C992        C  0.33405509  0.58457069  0.12354172    -0.20300
C993        C  0.29419664  0.58926694  0.13840626    -0.06900
C994        C  0.29663341  0.57917187  0.16414623     0.14000
C995        C  0.25387609  0.57929169  0.18045706    -0.23700
H996        H  0.34216530  0.55996447  0.19436494     0.15300
H997        H  0.33200001  0.59270733  0.10385097     0.15300
C998        C  0.41918465  0.56929760  0.11731249    -0.23600
H999        H  0.26196938  0.56724913  0.19964557     0.05500
H1000       H  0.22731118  0.55524100  0.17256231     0.08800
H1001       H  0.23900338  0.61497707  0.18194599     0.08800
H1002       H  0.43313334  0.53303794  0.11710355     0.08700
H1003       H  0.44638863  0.59377132  0.12416723     0.08700
H1004       H  0.41082454  0.57906166  0.09779582     0.05500
C1005       C  0.17638163  0.12408650  0.13770934    -0.20300
C1006       C  0.18349754  0.07872165  0.14693280    -0.06800
C1007       C  0.22518091  0.05464917  0.14119143     0.14000
C1008       C  0.26054477  0.07824544  0.12834696    -0.20300
C1009       C  0.25486060  0.12480338  0.12051258    -0.06900
C1010       C  0.21147601  0.14734945  0.12424037     0.14000
C1011       C  0.20155571  0.19515748  0.11348851    -0.23700
H1012       H  0.14375109  0.14174166  0.14158350     0.15300
H1013       H  0.29336407  0.06059442  0.12494567     0.15300
C1014       C  0.23239805  0.00389088  0.14818902    -0.23600
H1015       H  0.16491349  0.20593718  0.11682569     0.05500
H1016       H  0.20744534  0.19458003  0.09306573     0.08800
H1017       H  0.22433841  0.22200798  0.12205432     0.08800
H1018       H  0.20345785  0.98232798  0.14064257     0.08700
H1019       H  0.23392020  0.99976868  0.16867437     0.08700
H1020       H  0.26552476  0.98992462  0.14051614     0.05500
C1021       C  0.14010617  0.16332985  0.26313471    -0.20300
C1022       C  0.14528776  0.12352010  0.27819872    -0.06800
C1023       C  0.16309351  0.12773525  0.30253764     0.14000
C1024       C  0.17479998  0.17214934  0.31151103    -0.20300
C1025       C  0.16918316  0.21205322  0.29662639    -0.06900
C1026       C  0.15203908  0.20787179  0.27215205     0.14000
C1027       C  0.14628842  0.25035501  0.25577876    -0.23700
H1028       H  0.12599100  0.15961203  0.24452625     0.15300
H1029       H  0.18933807  0.17577554  0.33003797     0.15300
C1030       C  0.17108955  0.08528920  0.31874475    -0.23600
H1031       H  0.13193578  0.24095714  0.23724833     0.05500
H1032       H  0.18054485  0.26761749  0.25291754     0.08800
H1033       H  0.12206840  0.27552766  0.26475430     0.08800
H1034       H  0.19472418  0.06042907  0.30909799     0.08700
H1035       H  0.13752418  0.06757063  0.32276512     0.08700
H1036       H  0.18727219  0.09485434  0.33681494     0.05500
C1037       C  0.89541597  0.12091525  0.30065448    -0.20300
C1038       C  0.89006551  0.07590927  0.29072653    -0.06800
C1039       C  0.84867785  0.05048704  0.29556967     0.14000
C1040       C  0.81244202  0.07214277  0.30867967    -0.20300
C1041       C  0.81674356  0.11805165  0.31782009    -0.06900
C1042       C  0.85970224  0.14203009  0.31458659     0.14000
C1043       C  0.86988719  0.18907695  0.32610105    -0.23700
H1044       H  0.92764246  0.13983520  0.29744012     0.15300
H1045       H  0.77999115  0.05333224  0.31128177     0.15300
C1046       C  0.84253693  0.00023003  0.28739739    -0.23600
H1047       H  0.90279547  0.18700080  0.33690676     0.05500
H1048       H  0.84259677  0.20060664  0.33926133     0.08800
H1049       H  0.87395775  0.21583879  0.31123058     0.08800
H1050       H  0.87206662  0.97867066  0.29427493     0.08700
H1051       H  0.84058485  0.99796279  0.26685398     0.08700
H1052       H  0.80987501  0.98475389  0.29486126     0.05500
C1053       C  0.21925312  0.75810213  0.13885691    -0.20300
C1054       C  0.18631143  0.72365977  0.13253834    -0.06800
C1055       C  0.13895055  0.73064292  0.13868866     0.14000
C1056       C  0.12579812  0.77220760  0.15062595    -0.20300
C1057       C  0.15883191  0.80612008  0.15738129    -0.06900
C1058       C  0.20619202  0.79917542  0.15135705     0.14000
C1059       C  0.24286457  0.83525135  0.15732118    -0.23700
H1060       H  0.25558021  0.75242861  0.13424370     0.15300
H1061       H  0.08946302  0.77787223  0.15524299     0.15300
C1062       C  0.10245733  0.69365569  0.13392697    -0.23600
H1063       H  0.27749833  0.82508927  0.14985814     0.05500
H1064       H  0.24650990  0.83893715  0.17775000     0.08800
H1065       H  0.23320983  0.86954833  0.14899169     0.08800
H1066       H  0.11282232  0.66022721  0.14297454     0.08700
H1067       H  0.09800220  0.68804748  0.11366890     0.08700
H1068       H  0.06797872  0.70399204  0.14152471     0.05500
C1069       C  0.94791104  0.30632090  0.06628091    -0.20300
C1070       C  0.92594133  0.33576431  0.08373859    -0.06800
C1071       C  0.92978417  0.38499862  0.08064485     0.14000
C1072       C  0.94994819  0.40290592  0.05889858    -0.20300
C1073       C  0.97148471  0.37341094  0.04149814    -0.06900
C1074       C  0.97274322  0.32461469  0.04602969     0.14000
C1075       C  0.00033674  0.29100766  0.03019365    -0.23700
H1076       H  0.94617518  0.26858742  0.06845796     0.15300
H1077       H  0.95093309  0.44055666  0.05604111     0.15300
C1078       C  0.91627279  0.41974480  0.10045754    -0.23600
H1079       H  0.02543728  0.27169088  0.04212012     0.05500
H1080       H  0.02068050  0.30882778  0.01542426     0.08800
H1081       H  0.97644075  0.26538231  0.02132026     0.08800
H1082       H  0.90989993  0.40282097  0.11868331     0.08700
H1083       H  0.88499301  0.43963678  0.09445665     0.08700
H1084       H  0.94533840  0.44481502  0.10349559     0.05500
C1085       C  0.90586729  0.16741926  0.12662222    -0.20300
C1086       C  0.90411918  0.20426289  0.14381934    -0.06800
C1087       C  0.91477045  0.19582794  0.16908925     0.14000
C1088       C  0.92739290  0.15041562  0.17649899    -0.20300
C1089       C  0.92992652  0.11383086  0.15915913    -0.06900
C1090       C  0.91846799  0.12213721  0.13400000     0.14000
C1091       C  0.91774602  0.08313730  0.11508549    -0.23700
H1092       H  0.89682121  0.17413955  0.10734812     0.15300
H1093       H  0.93649223  0.14365184  0.19575765     0.15300
C1094       C  0.91448127  0.23477992  0.18801376    -0.23600
H1095       H  0.90520660  0.09555779  0.09666435     0.05500
H1096       H  0.89405174  0.05479229  0.12148108     0.08800
H1097       H  0.95323596  0.06876398  0.11242160     0.08800
H1098       H  0.87883979  0.24915591  0.19011740     0.08700
H1099       H  0.93842600  0.26318551  0.18197747     0.08700
H1100       H  0.92603371  0.22229099  0.20660459     0.05500
C1101       C  0.74040325  0.38985334  0.16109181    -0.20300
C1102       C  0.70141975  0.36044201  0.16138670    -0.06800
C1103       C  0.70374798  0.31561434  0.15049513     0.14000
C1104       C  0.74572403  0.30083697  0.13977295    -0.20300
C1105       C  0.78525505  0.32988342  0.13983249    -0.06900
C1106       C  0.78260037  0.37494344  0.15072020     0.14000
C1107       C  0.82428913  0.40685568  0.15227378    -0.23700
H1108       H  0.73793994  0.42440728  0.16938851     0.15300
H1109       H  0.74795431  0.26624240  0.13152198     0.15300
C1110       C  0.66178183  0.28392517  0.14966288    -0.23600
H1111       H  0.81676656  0.43881744  0.16335524     0.05500
H1112       H  0.83421941  0.41851060  0.13335688     0.08800
H1113       H  0.85386487  0.38829559  0.16123781     0.08800
H1114       H  0.63288445  0.30175872  0.13970207     0.08700
H1115       H  0.65044355  0.27522800  0.16886952     0.08700
H1116       H  0.66941522  0.25056079  0.13983956     0.05500
C1117       C  0.40388940  0.86229725  0.37031535    -0.20300
C1118       C  0.39650743  0.81559887  0.37787728    -0.06800
C1119       C  0.41694194  0.79978723  0.40035082     0.14000
C1120       C  0.44443180  0.83079521  0.41427164    -0.20300
C1121       C  0.44981373  0.87805614  0.40736339    -0.06900
C1122       C  0.42907837  0.89404449  0.38504052     0.14000
C1123       C  0.43071206  0.94448947  0.37666170    -0.23700
H1124       H  0.38848088  0.87465819  0.35309122     0.15300
H1125       H  0.46005158  0.81873302  0.43150378     0.15300
C1126       C  0.40741518  0.75163252  0.41087403    -0.23600
H1127       H  0.39465026  0.95782983  0.37429548     0.05500
H1128       H  0.44911038  0.94684743  0.35852556     0.08800
H1129       H  0.44842279  0.96793559  0.39004387     0.08800
H1130       H  0.42423117  0.72421820  0.39943230     0.08700
H1131       H  0.36928059  0.74535505  0.41175093     0.08700
H1132       H  0.42143578  0.74784767  0.43004103     0.05500
C1133       C  0.21213875  0.78971105  0.32827429    -0.20300
C1134       C  0.25860557  0.80021287  0.32258255    -0.06800
C1135       C  0.26880829  0.83106477  0.30282853     0.14000
C1136       C  0.23225583  0.85154898  0.28949046    -0.20300
C1137       C  0.18535175  0.84202859  0.29521373    -0.06900
C1138       C  0.17519782  0.81033112  0.31489240     0.14000
C1139       C  0.12608516  0.79671115  0.32153962    -0.23700
H1140       H  0.20483240  0.76525209  0.34323612     0.15300
H1141       H  0.24066152  0.87541516  0.27443834     0.15300
C1142       C  0.31842494  0.84166882  0.29544008    -0.23600
H1143       H  0.12531803  0.76737889  0.33515787     0.05500
H1144       H  0.10700380  0.78516613  0.30465071     0.08800
H1145       H  0.10805793  0.82667586  0.33037413     0.08800
H1146       H  0.33658495  0.80867372  0.29036099     0.08700
H1147       H  0.33704126  0.85858189  0.31114347     0.08700
H1148       H  0.32019331  0.86572682  0.27919528     0.05500
C1149       C  0.37134494  0.59219903  0.31042572    -0.20300
C1150       C  0.41281703  0.59892334  0.29713232    -0.06800
C1151       C  0.43715426  0.64198648  0.29933959     0.14000
C1152       C  0.41754276  0.67825794  0.31323738    -0.20300
C1153       C  0.37470894  0.67274807  0.32533768    -0.06900
C1154       C  0.35194515  0.62871465  0.32464622     0.14000
C1155       C  0.30812118  0.61973823  0.33933365    -0.23700
H1156       H  0.35364380  0.55869559  0.30923729     0.15300
H1157       H  0.43518845  0.71184675  0.31403742     0.15300
C1158       C  0.48414802  0.65020701  0.28742767    -0.23600
H1159       H  0.29667144  0.58265247  0.33776278     0.05500
H1160       H  0.27929150  0.64208309  0.33247560     0.08800
H1161       H  0.31448417  0.62735101  0.35930657     0.08800
H1162       H  0.48077109  0.65175225  0.26688665     0.08700
H1163       H  0.50859384  0.62177353  0.29280603     0.08700
H1164       H  0.49979025  0.68398213  0.29342540     0.05500
C1165       C  0.60885701  0.83859744  0.03925637    -0.20300
C1166       C  0.61125346  0.88759710  0.04030597    -0.06800
C1167       C  0.64156708  0.90889207  0.05766158     0.14000
C1168       C  0.66956996  0.88048869  0.07305922    -0.20300
C1169       C  0.67008521  0.83130369  0.07052195    -0.06900
C1170       C  0.63995869  0.81045353  0.05265639     0.14000
C1171       C  0.64233084  0.75946983  0.04520506    -0.23700
H1172       H  0.58623041  0.82239276  0.02556712     0.15300
H1173       H  0.69169807  0.89695233  0.08683702     0.15300
C1174       C  0.64564591  0.96145633  0.05933495    -0.23600
H1175       H  0.64431414  0.75678750  0.02460423     0.05500
H1176       H  0.61050922  0.74095175  0.05165360     0.08800
H1177       H  0.67367449  0.74130140  0.05232222     0.08800
H1178       H  0.61173141  0.97681343  0.06489952     0.08700
H1179       H  0.65617876  0.97604353  0.04100829     0.08700
H1180       H  0.67204221  0.97226179  0.07330842     0.05500
C1181       C  0.69339133  0.64753020  0.11890145    -0.20300
C1182       C  0.68866789  0.69394942  0.12697139    -0.06800
C1183       C  0.66573451  0.70375176  0.14948231     0.14000
C1184       C  0.64743445  0.66683468  0.16341296    -0.20300
C1185       C  0.65187460  0.61989452  0.15570194    -0.06900
C1186       C  0.67507412  0.61015588  0.13296090     0.14000
C1187       C  0.68142086  0.56084497  0.12352544    -0.23700
H1188       H  0.71161131  0.64062389  0.10161983     0.15300
H1189       H  0.62926876  0.67541668  0.18039546     0.15300
C1190       C  0.66127742  0.75326168  0.15910529    -0.23600
H1191       H  0.70252339  0.55995557  0.10620240     0.05500
H1192       H  0.64704878  0.54506808  0.11917388     0.08800
H1193       H  0.69960873  0.53933529  0.13775909     0.08800
H1194       H  0.64138144  0.77496367  0.14564860     0.08700
H1195       H  0.69641407  0.76872503  0.16176000     0.08700
H1196       H  0.64281036  0.75458265  0.17725580     0.05500
C1197       C  0.81546341  0.80451568  0.14847937    -0.20300
C1198       C  0.81590474  0.80585767  0.12238755    -0.06800
C1199       C  0.85655342  0.82138459  0.11003305     0.14000
C1200       C  0.89502351  0.83673775  0.12421686    -0.20300
C1201       C  0.89393833  0.83639554  0.15042700    -0.06900
C1202       C  0.85371984  0.81865898  0.16263303     0.14000
C1203       C  0.85015714  0.81388904  0.19060686    -0.23700
H1204       H  0.78440967  0.79232420  0.15799002     0.15300
H1205       H  0.92563230  0.84985972  0.11471673     0.15300
C1206       C  0.86007427  0.82060598  0.08208600    -0.23600
H1207       H  0.81859714  0.79403110  0.19630059     0.05500
H1208       H  0.84747812  0.84892622  0.19940791     0.08800
H1209       H  0.88086286  0.79467470  0.19795284     0.08800
H1210       H  0.83458756  0.84521086  0.07377739     0.08700
H1211       H  0.85321803  0.78460328  0.07515496     0.08700
H1212       H  0.89526558  0.83131173  0.07563055     0.05500
C1213       C  0.88493442  0.55240921  0.37576125    -0.20300
C1214       C  0.88540131  0.60166106  0.37719256    -0.06800
C1215       C  0.90671014  0.62340406  0.39803430     0.14000
C1216       C  0.93021640  0.59560786  0.41551090    -0.20300
C1217       C  0.93101606  0.54665949  0.41345721    -0.06900
C1218       C  0.90671819  0.52465573  0.39386144     0.14000
C1219       C  0.90369429  0.47196939  0.39202423    -0.23700
H1220       H  0.86836019  0.53544195  0.36005030     0.15300
H1221       H  0.94831882  0.61227322  0.43085414     0.15300
C1222       C  0.90453754  0.67538889  0.40297177    -0.23600
H1223       H  0.88163281  0.46079959  0.37611976     0.05500
H1224       H  0.88814234  0.45758703  0.40934852     0.08800
H1225       H  0.93872676  0.45651288  0.38930888     0.08800
H1226       H  0.88115396  0.69437342  0.39006018     0.08700
H1227       H  0.94005844  0.69062040  0.40169502     0.08700
H1228       H  0.89081155  0.68145631  0.42202402     0.05500
C1229       C  0.75644101  0.61625640  0.28971729    -0.20300
C1230       C  0.75639429  0.62501151  0.31546728    -0.06800
C1231       C  0.71465425  0.61951196  0.32913481     0.14000
C1232       C  0.67502719  0.60210356  0.31699021    -0.20300
C1233       C  0.67572021  0.59212072  0.29145495    -0.06900
C1234       C  0.71638092  0.60049255  0.27746753     0.14000
C1235       C  0.71820353  0.59105166  0.24988181    -0.23700
H1236       H  0.78830719  0.62105899  0.27919418     0.15300
H1237       H  0.64328098  0.59613182  0.32746178     0.15300
C1238       C  0.71102537  0.63356323  0.35611801    -0.23600
H1239       H  0.75327446  0.59828310  0.24203197     0.05500
H1240       H  0.69286483  0.61392307  0.24007284     0.08800
H1241       H  0.70961061  0.55374288  0.24617914     0.08800
H1242       H  0.72261861  0.67045861  0.35838509     0.08700
H1243       H  0.73255219  0.61039319  0.36798923     0.08700
H1244       H  0.67462559  0.63102226  0.36299699     0.05500
C1245       C  0.90338682  0.76915799  0.32553117    -0.20300
C1246       C  0.89459224  0.72807608  0.31209448    -0.06800
C1247       C  0.90578552  0.72597917  0.28649037     0.14000
C1248       C  0.92272706  0.76621959  0.27455248    -0.20300
C1249       C  0.93024306  0.80772611  0.28782148    -0.06900
C1250       C  0.92144858  0.80907522  0.31372294     0.14000
C1251       C  0.92901671  0.85300526  0.32877053    -0.23700
H1252       H  0.89472762  0.77037798  0.34516422     0.15300
H1253       H  0.93068768  0.76516514  0.25483299     0.15300
C1254       C  0.90110589  0.68109001  0.27189961    -0.23600
H1255       H  0.91782841  0.84841360  0.34841492     0.05500
H1256       H  0.90863089  0.88235124  0.32064149     0.08800
H1257       H  0.96654719  0.86227695  0.32892706     0.08800
H1258       H  0.86414301  0.67013496  0.27077691     0.08700
H1259       H  0.92169915  0.65299749  0.28105529     0.08700
H1260       H  0.91416567  0.68513985  0.25255503     0.05500
loop_ 
_geom_bond_atom_site_label_1 
_geom_bond_atom_site_label_2 
_geom_bond_distance 
_geom_bond_site_symmetry_2 
_ccdc_geom_bond_type 
C1            C2   1.402       .  A
C1            C6   1.396       .  A
C1         C1246   1.474       .  S
C2            C3   1.408       .  A
C2            H7   1.084       .  S
C3            C4   1.407       .  A
C3         C1214   1.487       .  S
C4            C5   1.402       .  A
C4            H8   1.082       .  S
C5            C6   1.396       .  A
C5         C1230   1.480       .  S
C6            H9   1.085       .  S
C10          C11   1.394       .  A
C10          C15   1.391       .  A
C10        C1182   1.468       .  S
C11          C12   1.405       .  A
C11          H16   1.084       .  S
C12          C13   1.416       .  A
C12        C1169   1.498       .  S
C13          C14   1.413       .  A
C13          H17   1.081       .  S
C14          C15   1.402       .  A
C14        C1198   1.489       .  S
C15          H18   1.085       .  S
C19          C20   1.405       .  A
C19          C24   1.401       .  A
C19        C1153   1.481       .  S
C20          C21   1.404       .  A
C20          H25   1.082       .  S
C21          C22   1.406       .  A
C21        C1118   1.490       .  S
C22          C23   1.402       .  A
C22          H26   1.084       .  S
C23          C24   1.399       .  A
C23        C1134   1.476       .  S
C24          H27   1.084       .  S
C28          C29   1.395       .  A
C28          C33   1.400       .  A
C28        C1086   1.472       .  S
C29          C30   1.398       .  A
C29          H34   1.084       .  S
C30          C31   1.404       .  A
C30        C1105   1.478       .  S
C31          C32   1.409       .  A
C31          H35   1.083       .  S
C32          C33   1.406       .  A
C32        C1070   1.492       .  S
C33          H36   1.083       .  S
C37          C74   1.469       .  S
C37        C1137   1.491       .  S
C37          N55   1.351       .  A
N38          N55   1.321       .  A
N38          N60   1.317       .  A
N38         Co75   2.076       .  S
C39          C77   1.452       .  S
C39          H84   1.082       .  S
C39          N64   1.333       .  A
H40          C81   1.081       .  S
C41          C45   1.475       .  S
C41          H70   1.081       .  S
C41          N65   1.349       .  A
Co42         N60   2.086       .  S
Co42         N50   2.059   1_455  S
Co42         N82   2.057   1_565  S
Co42         N58   2.093   1_465  S
Co42        Cl86   2.467       .  S
N43          C81   1.343       .  A
N43          N50   1.321       .  A
N43         Co44   2.102       .  S
Co44         N47   2.054       .  S
Co44         N64   2.056   1_565  S
Co44         N51   2.093   1_565  S
Co44        Cl86   2.418   1_655  S
C45        C1201   1.488       .  S
C45          N83   1.342       .  A
N46          N53   1.323       .  A
N46          N76   1.320       .  A
N46         Co79   2.070       .  S
N47          N65   1.316       .  A
N47          N83   1.315       .  A
N48          C77   1.355       .  A
N48          N58   1.328       .  A
H49          C74   1.078       .  S
N50          N71   1.320       .  A
N51          N69   1.321       .  A
N51          N56   1.325       .  A
C52          C80   1.453       .  S
C52        C1089   1.466       .  S
C52          N56   1.350       .  A
N53          C68   1.343       .  A
N53         Co75   2.101       .  S
C54          C57   1.447       .  S
C54          H88   1.081       .  S
C54          N82   1.333       .  A
C57        C1022   1.460       .  S
C57          N78   1.350       .  A
N58          N64   1.315       .  A
N59          C85   1.334       .  A
N59          N61   1.317       .  A
N59         Co75   2.061   1_545  S
N60          C74   1.343       .  A
N61          N89   1.327       .  A
N61         Co79   2.091   1_545  S
H62          C85   1.082       .  S
H63          C80   1.081   1_455  S
N65         Co79   2.094   1_655  S
N66          N78   1.326       .  A
N66          N82   1.322       .  A
N66         Co75   2.096   1_545  S
C67          C81   1.463       .  S
C67        C1249   1.469       .  S
C67          N71   1.343       .  A
C68          C87   1.465       .  S
C68          H72   1.081       .  S
N69          C80   1.335       .  A
N69         Co79   2.065   1_645  S
C73          C85   1.453       .  S
C73        C1006   1.471       .  S
C73          N89   1.353       .  A
Co75        Cl86   2.429       .  S
N76          C87   1.346       .  A
C77        C1038   1.476       .  S
Co79        Cl86   2.469       .  S
C87        C1057   1.472       .  S
C90          C91   1.395       .  A
C90          C95   1.401       .  A
C90         C993   1.473       .  S
C91          C92   1.396       .  A
C91          H96   1.083       .  S
C92          C93   1.403       .  A
C92        C1054   1.479       .  S
C93          C94   1.410       .  A
C93          H97   1.082       .  S
C94          C95   1.407       .  A
C94         C974   1.492       .  S
C95          H98   1.083       .  S
C99         C100   1.405       .  A
C99         C104   1.405       .  A
C99        C1041   1.490       .  S
C100        C101   1.404       .  A
C100        H105   1.083       .  S
C101        C102   1.403       .  A
C101        C942   1.488       .  S
C102        C103   1.404       .  A
C102        H106   1.082       .  S
C103        C104   1.406       .  A
C103        C958   1.488       .  S
C104        H107   1.084       .  S
C108        C109   1.414       .  A
C108        C113   1.416       .  A
C108        C910   1.506       .  S
C109        C110   1.399       .  A
C109        H114   1.081       .  S
C110        C111   1.388       .  A
C110       C1025   1.465       .  S
C111        C112   1.391       .  A
C111        H115   1.085       .  S
C112        C113   1.404       .  A
C112        C926   1.473       .  S
C113        H116   1.080       .  S
C117        C118   1.404       .  A
C117        C122   1.407       .  A
C117        C881   1.492       .  S
C118        C119   1.399       .  A
C118        H123   1.084       .  S
C119        C120   1.398       .  A
C119        C894   1.473       .  S
C120        C121   1.402       .  A
C120        H124   1.084       .  S
C121        C122   1.405       .  A
C121       C1009   1.482       .  S
C122        H125   1.083       .  S
C126        C163   1.451       .  S
C126       C1233   1.466       .  S
C126        N144   1.350       .  A
N127        N144   1.325       .  A
N127        N149   1.320       .  A
N127       Co164   2.093       .  S
C128        C166   1.461       .  S
C128        H173   1.081       .  S
C128        N153   1.342       .  A
H129        C170   1.082       .  S
C130        C134   1.450       .  S
C130        H159   1.082       .  S
C130        N154   1.336       .  A
Co131       N149   2.063       .  S
Co131       N139   2.089       .  S
Co131       N171   2.087       .  S
Co131       N147   2.061       .  S
Co131      Cl175   2.467       .  S
N132        C170   1.335       .  A
N132        N139   1.318       .  A
N132       Co133   2.069       .  S
Co133       N136   2.092       .  S
Co133       N153   2.095       .  S
Co133       N140   2.066       .  S
Co133      Cl175   2.428       .  S
C134       C1102   1.463       .  S
C134        N172   1.350       .  A
N135        N142   1.316       .  A
N135        N165   1.325       .  A
N135       Co168   2.082       .  S
N136        N154   1.321       .  A
N136        N172   1.325       .  A
N137        C166   1.344       .  A
N137        N147   1.320       .  A
H138        C163   1.082       .  S
N139        N160   1.326       .  A
N140        N158   1.317       .  A
N140        N145   1.320       .  A
C141        C169   1.464       .  S
C141        C897   1.474       .  S
C141        N145   1.348       .  A
N142        C157   1.331       .  A
N142       Co164   2.062       .  S
C143        C146   1.466       .  S
C143        H177   1.081       .  S
C143        N171   1.344       .  A
C146       C1150   1.473       .  S
C146        N167   1.344       .  A
N147        N153   1.321       .  A
N148        C174   1.340       .  A
N148        N150   1.319       .  A
N148       Co164   2.086       .  S
N149        C163   1.336       .  A
N150        N178   1.320       .  A
N150       Co168   2.057       .  S
H151        C174   1.081       .  S
H152        C169   1.080       .  S
N154       Co168   2.063       .  S
N155        N167   1.317       .  A
N155        N171   1.317       .  A
N155       Co164   2.062       .  S
C156        C170   1.456       .  S
C156        C961   1.470       .  S
C156        N160   1.353       .  A
C157        C176   1.462       .  S
C157        H161   1.080       .  S
N158        C169   1.342       .  A
N158       Co168   2.083       .  S
C162        C174   1.459       .  S
C162        C990   1.464       .  S
C162        N178   1.344       .  A
Co164      Cl175   2.417       .  S
N165        C176   1.354       .  A
C166        C929   1.465       .  S
Co168      Cl175   2.462       .  S
C176       C1185   1.487       .  S
N179        C184   1.347       .  A
N179        C183   1.348       .  A
N179        H211   1.040       .  S
N180        C187   1.350       .  A
N180        C188   1.347       .  A
N181        C186   1.353       .  A
N181        C185   1.350       .  A
N181        H212   1.041       .  S
N182        C189   1.347       .  A
N182        C190   1.347       .  A
C183        C191   1.386       .  A
C183        C199   1.406   1_565  A
C184        C200   1.408       .  A
C184        C192   1.388       .  A
C185        C193   1.387       .  A
C185        C202   1.413   1_565  A
C186        C201   1.416       .  A
C186        C194   1.387       .  A
C187        C199   1.408       .  A
C187        C195   1.385       .  A
C188        C202   1.409       .  A
C188        C196   1.388       .  A
C189        C197   1.386       .  A
C189        C200   1.406       .  A
C190        C198   1.387       .  A
C190        C201   1.409       .  A
C191        C192   1.377       .  A
C191        H203   1.082       .  S
C192        H204   1.082       .  S
C193        C194   1.382       .  A
C193        H205   1.082       .  S
C194        H206   1.082       .  S
C195        C196   1.375       .  A
C195        H207   1.082       .  S
C196        H208   1.082       .  S
C197        C198   1.372       .  A
C197        H209   1.082       .  S
C198        H210   1.082       .  S
C199        C846   1.484       .  S
C200        C862   1.477       .  S
C201       C1121   1.493       .  S
C202        C945   1.484       .  S
N213        C218   1.353       .  A
N213        C217   1.352       .  A
N213        H245   1.036   1_554  S
N214        C221   1.352       .  A
N214        C222   1.352       .  A
N215        C220   1.357       .  A
N215        C219   1.357   1_455  A
N215        H246   1.036       .  S
N216        C223   1.351       .  A
N216        C224   1.348       .  A
C217        C225   1.388       .  A
C217        C233   1.416   1_455  A
C218        C234   1.414       .  A
C218        C226   1.386       .  A
C219        C227   1.387       .  A
C219        C236   1.423       .  A
C220        C235   1.422       .  A
C220        C228   1.387       .  A
C221        C233   1.417   1_556  A
C221        C229   1.385       .  A
C222        C236   1.420       .  A
C222        C230   1.388       .  A
C223        C231   1.384       .  A
C223        C234   1.411   1_556  A
C224        C232   1.389       .  A
C224        C235   1.417       .  A
C225        C226   1.371       .  A
C225        H237   1.082       .  S
C226        H238   1.083       .  S
C227        C228   1.376   1_655  A
C227        H239   1.082       .  S
C228        H240   1.082       .  S
C229        C230   1.368       .  A
C229        H241   1.081   1_556  S
C230        H242   1.081       .  S
C231        C232   1.370       .  A
C231        H243   1.082       .  S
C232        H244   1.082       .  S
C233       C1073   1.490       .  S
C234        C977   1.489       .  S
C235        C814   1.492       .  S
C236        C830   1.500       .  S
N247        C252   1.354       .  A
N247        C251   1.352       .  A
N247        H279   1.031       .  S
N248        C255   1.349       .  A
N248        C256   1.348       .  A
N249        C254   1.353       .  A
N249        C253   1.357       .  A
N249        H280   1.031       .  S
N250        C257   1.354       .  A
N250        C258   1.353       .  A
C251        C259   1.386       .  A
C251        C267   1.411   1_455  A
C252        C268   1.413       .  A
C252        C260   1.388       .  A
C253        C261   1.386       .  A
C253        C270   1.418   1_455  A
C254        C269   1.417       .  A
C254        C262   1.387       .  A
C255        C267   1.408       .  A
C255        C263   1.385       .  A
C256        C270   1.410       .  A
C256        C264   1.387       .  A
C257        C265   1.385       .  A
C257        C268   1.416       .  A
C258        C266   1.388       .  A
C258        C269   1.419       .  A
C259        C260   1.372       .  A
C259        H271   1.082       .  S
C260        H272   1.080       .  S
C261        C262   1.381       .  A
C261        H273   1.082       .  S
C262        H274   1.082       .  S
C263        C264   1.374       .  A
C263        H275   1.082       .  S
C264        H276   1.082       .  S
C265        C266   1.370       .  A
C265        H277   1.082       .  S
C266        H278   1.082       .  S
C267       C1217   1.485       .  S
C268        C913   1.493       .  S
C269        C785   1.496       .  S
C270        C798   1.494       .  S
N281        C286   1.352       .  A
N281        C285   1.353       .  A
N281        H313   1.036       .  S
N282        C289   1.350       .  A
N282        C290   1.349       .  A
N283        C288   1.354       .  A
N283        C287   1.353   1_565  A
N283        H314   1.039   1_554  S
N284        C291   1.354       .  A
N284        C292   1.352       .  A
C285        C293   1.385       .  A
C285        C301   1.415   1_565  A
C286        C302   1.418       .  A
C286        C294   1.390       .  A
C287        C295   1.388   1_545  A
C287        C304   1.418       .  A
C288        C303   1.416       .  A
C288        C296   1.386       .  A
C289        C301   1.409       .  A
C289        C297   1.385       .  A
C290        C304   1.412   1_556  A
C290        C298   1.388       .  A
C291        C299   1.385       .  A
C291        C302   1.416       .  A
C292        C300   1.388       .  A
C292        C303   1.419   1_556  A
C293        C294   1.370       .  A
C293        H305   1.082       .  S
C294        H306   1.080       .  S
C295        C296   1.380       .  A
C295        H307   1.082       .  S
C296        H308   1.082       .  S
C297        C298   1.372       .  A
C297        H309   1.082       .  S
C298        H310   1.082       .  S
C299        C300   1.368       .  A
C299        H311   1.082       .  S
C300        H312   1.082   1_556  S
C301        C750   1.490       .  S
C302        C766   1.491       .  S
C303       C1166   1.496       .  S
C304        C878   1.490       .  S
C315        C316   1.399       .  A
C315        C320   1.391       .  A
C315        C718   1.468       .  S
C316        C317   1.411       .  A
C316        H321   1.081       .  S
C317        C318   1.415       .  A
C317        C769   1.504       .  S
C318        C319   1.402       .  A
C318        H322   1.082       .  S
C319        C320   1.389       .  A
C319        C734   1.471       .  S
C320        H323   1.085       .  S
C324        C325   1.406       .  A
C324        C329   1.406       .  A
C324        C702   1.491       .  S
C325        C326   1.408       .  A
C325        H330   1.083       .  S
C326        C327   1.408       .  A
C326        C833   1.499       .  S
C327        C328   1.405       .  A
C327        H331   1.083       .  S
C328        C329   1.405       .  A
C328        C686   1.490       .  S
C329        H332   1.084       .  S
C333        C334   1.406       .  A
C333        C338   1.409       .  A
C333        C753   1.492       .  S
C334        C335   1.403       .  A
C334        H339   1.082       .  S
C335        C336   1.397       .  A
C335        C657   1.481       .  S
C336        C337   1.398       .  A
C336        H340   1.084       .  S
C337        C338   1.407       .  A
C337        C673   1.483       .  S
C338        H341   1.083       .  S
C342        C343   1.402       .  A
C342        C347   1.405       .  A
C342        C641   1.482       .  S
C343        C344   1.402       .  A
C343        H348   1.083       .  S
C344        C345   1.405       .  A
C344        C622   1.487       .  S
C345        C346   1.408       .  A
C345        H349   1.083       .  S
C346        C347   1.405       .  A
C346        C817   1.494       .  S
C347        H350   1.083       .  S
C351        C352   1.409       .  A
C351        C356   1.405       .  A
C351        C782   1.491       .  S
C352        C353   1.408       .  A
C352        H357   1.082       .  S
C353        C354   1.406       .  A
C353        C590   1.490       .  S
C354        C355   1.402       .  A
C354        H358   1.084       .  S
C355        C356   1.401       .  A
C355        C609   1.486       .  S
C356        H359   1.084       .  S
C360        C361   1.401       .  A
C360        C365   1.395       .  A
C360        C558   1.469       .  S
C361        C362   1.404       .  A
C361        H366   1.081       .  S
C362        C363   1.405       .  A
C362        C849   1.485       .  S
C363        C364   1.400       .  A
C363        H367   1.084       .  S
C364        C365   1.393       .  A
C364        C574   1.468       .  S
C365        H368   1.084       .  S
C369        C406   1.465       .  S
C369        C625   1.478       .  S
C369        N387   1.345       .  A
N370        N387   1.320       .  A
N370        N392   1.318       .  A
N370       Co407   2.067       .  S
C371        C409   1.456       .  S
C371        H416   1.082       .  S
C371        N396   1.336       .  A
H372        C413   1.081       .  S
C373        C377   1.469       .  S
C373        H402   1.079       .  S
C373        N397   1.345       .  A
Co374       N392   2.091       .  S
Co374       N382   2.057       .  S
Co374       N414   2.054       .  S
Co374       N390   2.096       .  S
Co374      Cl418   2.458       .  S
N375        C413   1.340       .  A
N375        N382   1.323       .  A
N375       Co376   2.094       .  S
Co376       N379   2.075       .  S
Co376       N396   2.068       .  S
Co376       N383   2.092       .  S
Co376      Cl418   2.431       .  S
C377        C542   1.491       .  S
C377        N415   1.352       .  A
N378        N385   1.322       .  A
N378        N408   1.317       .  A
N378       Co411   2.057       .  S
N379        N397   1.315       .  A
N379        N415   1.321       .  A
N380        C409   1.355       .  A
N380        N390   1.329       .  A
H381        C406   1.081       .  S
N382        N403   1.319       .  A
N383        N401   1.321       .  A
N383        N388   1.324       .  A
C384        C412   1.449       .  S
C384        C561   1.459       .  S
C384        N388   1.349       .  A
N385        C400   1.342       .  A
N385       Co407   2.094       .  S
C386        C389   1.448       .  S
C386        H420   1.082       .  S
C386        N414   1.328       .  A
C389        C654   1.462       .  S
C389        N410   1.351       .  A
N390        N396   1.317       .  A
N391        C417   1.338       .  A
N391        N393   1.317       .  A
N391       Co407   2.070       .  S
N392        C406   1.347       .  A
N393        N421   1.326       .  A
N393       Co411   2.083       .  S
H394        C417   1.081       .  S
H395        C412   1.081       .  S
N397       Co411   2.085       .  S
N398        N410   1.326       .  A
N398        N414   1.322       .  A
N398       Co407   2.095       .  S
C399        C413   1.459       .  S
C399        C721   1.458       .  S
C399        N403   1.341       .  A
C400        C419   1.460       .  S
C400        H404   1.081       .  S
N401        C412   1.334       .  A
N401       Co411   2.057       .  S
C405        C417   1.457       .  S
C405        C606   1.475       .  S
C405        N421   1.351       .  A
Co407      Cl418   2.436       .  S
N408        C419   1.341       .  A
C409        C705   1.481       .  S
Co411      Cl418   2.456       .  S
C419        C526   1.461       .  S
C422        C423   1.406       .  A
C422        C427   1.398       .  A
C422        C545   1.489       .  S
C423        C424   1.412       .  A
C423        H428   1.083       .  S
C424        C425   1.409       .  A
C424        C801   1.498       .  S
C425        C426   1.409       .  A
C425        H429   1.083       .  S
C426        C427   1.406       .  A
C426        C513   1.496       .  S
C427        H430   1.084       .  S
C431        C432   1.394       .  A
C431        C436   1.398       .  A
C431        C494   1.464       .  S
C432        C433   1.393       .  A
C432        H437   1.084       .  S
C433        C434   1.397       .  A
C433        C529   1.463       .  S
C434        C435   1.401       .  A
C434        H438   1.083       .  S
C435        C436   1.402       .  A
C435        C865   1.470       .  S
C436        H439   1.084       .  S
C440        C477   1.450       .  S
C440        C737   1.469       .  S
C440        N458   1.352       .  A
N441        N458   1.326       .  A
N441        N463   1.321       .  A
N441       Co478   2.100   1_655  S
C442        C480   1.466       .  S
C442        H487   1.080       .  S
C442        N467   1.345       .  A
H443        C484   1.082       .  S
C444        C448   1.449       .  S
C444        H473   1.082       .  S
C444        N468   1.334       .  A
Co445       N463   2.062   1_455  S
Co445       N453   2.095   1_465  S
Co445       N485   2.086       .  S
Co445       N461   2.064   1_565  S
Co445      Cl489   2.465       .  S
N446        C484   1.336       .  A
N446        N453   1.317       .  A
N446       Co447   2.070   1_655  S
Co447       N450   2.093   1_455  S
Co447       N467   2.104       .  S
Co447       N454   2.066       .  S
Co447      Cl489   2.427   1_545  S
C448        C577   1.462       .  S
C448        N486   1.350       .  A
N449        N456   1.318       .  A
N449        N479   1.329       .  A
N449       Co482   2.097   1_655  S
N450        N468   1.321       .  A
N450        N486   1.325       .  A
N451        C480   1.344       .  A
N451        N461   1.320       .  A
H452        C477   1.082       .  S
N453        N474   1.328       .  A
N454        N472   1.316       .  A
N454        N459   1.318       .  A
C455        C483   1.474       .  S
C455        C593   1.493       .  S
C455        N459   1.345       .  A
N456        C471   1.332       .  A
N456       Co478   2.061   1_655  S
C457        C460   1.467       .  S
C457        H491   1.081       .  S
C457        N485   1.343       .  A
C460        C638   1.483       .  S
C460        N481   1.347       .  A
N461        N467   1.320       .  A
N462        C488   1.342       .  A
N462        N464   1.322       .  A
N462       Co478   2.096       .  S
N463        C477   1.335       .  A
N464        N492   1.318       .  A
N464       Co482   2.054       .  S
H465        C488   1.081       .  S
H466        C483   1.081       .  S
N468       Co482   2.060   1_645  S
N469        N481   1.320       .  A
N469        N485   1.317       .  A
N469       Co478   2.070       .  S
C470        C484   1.456       .  S
C470        C689   1.480       .  S
C470        N474   1.355       .  A
C471        C490   1.454       .  S
C471        H475   1.082       .  S
N472        C483   1.349       .  A
N472       Co482   2.096   1_545  S
C476        C488   1.459       .  S
C476        C497   1.457       .  S
C476        N492   1.341       .  A
Co478      Cl489   2.429       .  S
N479        C490   1.356       .  A
C480        C670   1.479       .  S
Co482      Cl489   2.467       .  S
C490        C510   1.480       .  S
C493        C494   1.400       .  A
C493        C498   1.396       .  A
C493        H500   1.085       .  S
C494        C495   1.411       .  A
C495        C496   1.400       .  A
C495        C502   1.508       .  S
C496        C497   1.399       .  A
C496        H501   1.084       .  S
C497        C498   1.411       .  A
C498        C499   1.508       .  S
C499        H503   1.111       .  S
C499        H504   1.110       .  S
C499        H505   1.109       .  S
C502        H506   1.108       .  S
C502        H507   1.110       .  S
C502        H508   1.111       .  S
C509        C510   1.404       .  A
C509        C514   1.410       .  A
C509        H516   1.084       .  S
C510        C511   1.411       .  A
C511        C512   1.395       .  A
C511        C518   1.505       .  S
C512        C513   1.406       .  A
C512        H517   1.084       .  S
C513        C514   1.422       .  A
C514        C515   1.507       .  S
C515        H519   1.111       .  S
C515        H520   1.107       .  S
C515        H521   1.110       .  S
C518        H522   1.108       .  S
C518        H523   1.110       .  S
C518        H524   1.111       .  S
C525        C526   1.400       .  A
C525        C530   1.400       .  A
C525        H532   1.084       .  S
C526        C527   1.413       .  A
C527        C528   1.395       .  A
C527        C534   1.509       .  S
C528        C529   1.397       .  A
C528        H533   1.085       .  S
C529        C530   1.412       .  A
C530        C531   1.508       .  S
C531        H535   1.111       .  S
C531        H536   1.109       .  S
C531        H537   1.110       .  S
C534        H538   1.111       .  S
C534        H539   1.109       .  S
C534        H540   1.111       .  S
C541        C542   1.404       .  A
C541        C546   1.397       .  A
C541        H548   1.084       .  S
C542        C543   1.417       .  A
C543        C544   1.413       .  A
C543        C550   1.505       .  S
C544        C545   1.407       .  A
C544        H549   1.084       .  S
C545        C546   1.413       .  A
C546        C547   1.505       .  S
C547        H551   1.111       .  S
C547        H552   1.111       .  S
C547        H553   1.106       .  S
C550        H554   1.110       .  S
C550        H555   1.107       .  S
C550        H556   1.111       .  S
C557        C558   1.402       .  A
C557        C562   1.398       .  A
C557        H564   1.085       .  S
C558        C559   1.413       .  A
C559        C560   1.399       .  A
C559        C566   1.508       .  S
C560        C561   1.398       .  A
C560        H565   1.084       .  S
C561        C562   1.410       .  A
C562        C563   1.508       .  S
C563        H567   1.111       .  S
C563        H568   1.109       .  S
C563        H569   1.110       .  S
C566        H570   1.110       .  S
C566        H571   1.107       .  S
C566        H572   1.111       .  S
C573        C574   1.402       .  A
C573        C578   1.401       .  A
C573        H580   1.084       .  S
C574        C575   1.412       .  A
C575        C576   1.397       .  A
C575        C582   1.509       .  S
C576        C577   1.400       .  A
C576        H581   1.084       .  S
C577        C578   1.410       .  A
C578        C579   1.507       .  S
C579        H583   1.111       .  S
C579        H584   1.110       .  S
C579        H585   1.111       .  S
C582        H586   1.111       .  S
C582        H587   1.109       .  S
C582        H588   1.111       .  S
C589        C590   1.401       .  A
C589        C594   1.399       .  A
C589        H596   1.084       .  S
C590        C591   1.415       .  A
C591        C592   1.411       .  A
C591        C598   1.507       .  S
C592        C593   1.409       .  A
C592        H597   1.082       .  S
C593        C594   1.422       .  A
C594        C595   1.511       .  S
C595        H599   1.111       .  S
C595        H600   1.110       .  S
C595        H601   1.109       .  S
C598        H602   1.110       .  S
C598        H603   1.107       .  S
C598        H604   1.111       .  S
C605        C606   1.401       .  A
C605        C610   1.405       .  A
C605        H612   1.085       .  S
C606        C607   1.414       .  A
C607        C608   1.401       .  A
C607        C614   1.509       .  S
C608        C609   1.405       .  A
C608        H613   1.084       .  S
C609        C610   1.417       .  A
C610        C611   1.507       .  S
C611        H615   1.111       .  S
C611        H616   1.108       .  S
C611        H617   1.110       .  S
C614        H618   1.111       .  S
C614        H619   1.108       .  S
C614        H620   1.111       .  S
C621        C622   1.403       .  A
C621        C626   1.399       .  A
C621        H628   1.083       .  S
C622        C623   1.417       .  A
C623        C624   1.410       .  A
C623        C630   1.507       .  S
C624        C625   1.402       .  A
C624        H629   1.084       .  S
C625        C626   1.416       .  A
C626        C627   1.510       .  S
C627        H631   1.111       .  S
C627        H632   1.111       .  S
C627        H633   1.108       .  S
C630        H634   1.110       .  S
C630        H635   1.107       .  S
C630        H636   1.111       .  S
C637        C638   1.406       .  A
C637        C642   1.405       .  A
C637        H644   1.083       .  S
C638        C639   1.417       .  A
C639        C640   1.401       .  A
C639        C646   1.509       .  S
C640        C641   1.402       .  A
C640        H645   1.084       .  S
C641        C642   1.413       .  A
C642        C643   1.508       .  S
C643        H647   1.111       .  S
C643        H648   1.110       .  S
C643        H649   1.108       .  S
C646        H650   1.111       .  S
C646        H651   1.108       .  S
C646        H652   1.111       .  S
C653        C654   1.397       .  A
C653        C658   1.393       .  A
C653        H660   1.085       .  S
C654        C655   1.407       .  A
C655        C656   1.403       .  A
C655        C662   1.506       .  S
C656        C657   1.409       .  A
C656        H661   1.084       .  S
C657        C658   1.416       .  A
C658        C659   1.505       .  S
C659        H663   1.111       .  S
C659        H664   1.110       .  S
C659        H665   1.105       .  S
C662        H666   1.110       .  S
C662        H667   1.111       .  S
C662        H668   1.111       .  S
C669        C670   1.402       .  A
C669        C674   1.403       .  A
C669        H676   1.085       .  S
C670        C671   1.417       .  A
C671        C672   1.402       .  A
C671        C678   1.508       .  S
C672        C673   1.402       .  A
C672        H677   1.084       .  S
C673        C674   1.418       .  A
C674        C675   1.508       .  S
C675        H679   1.110       .  S
C675        H680   1.108       .  S
C675        H681   1.110       .  S
C678        H682   1.109       .  S
C678        H683   1.110       .  S
C678        H684   1.111       .  S
C685        C686   1.404       .  A
C685        C690   1.401       .  A
C685        H692   1.084       .  S
C686        C687   1.418       .  A
C687        C688   1.409       .  A
C687        C694   1.507       .  S
C688        C689   1.403       .  A
C688        H693   1.084       .  S
C689        C690   1.415       .  A
C690        C691   1.509       .  S
C691        H695   1.111   1_655  S
C691        H696   1.108       .  S
C691        H697   1.110   1_655  S
C694        H698   1.110       .  S
C694        H699   1.108       .  S
C694        H700   1.111       .  S
C701        C702   1.404       .  A
C701        C706   1.403       .  A
C701        H708   1.084       .  S
C702        C703   1.419       .  A
C703        C704   1.408       .  A
C703        C710   1.507       .  S
C704        C705   1.401       .  A
C704        H709   1.084       .  S
C705        C706   1.416       .  A
C706        C707   1.509       .  S
C707        H711   1.111       .  S
C707        H712   1.111       .  S
C707        H713   1.108       .  S
C710        H714   1.107       .  S
C710        H715   1.110       .  S
C710        H716   1.111       .  S
C717        C718   1.400       .  A
C717        C722   1.402       .  A
C717        H724   1.084       .  S
C718        C719   1.416       .  A
C719        C720   1.395       .  A
C719        C726   1.510       .  S
C720        C721   1.395       .  A
C720        H725   1.085       .  S
C721        C722   1.412       .  A
C722        C723   1.507       .  S
C723        H727   1.111       .  S
C723        H728   1.110       .  S
C723        H729   1.110       .  S
C726        H730   1.108       .  S
C726        H731   1.111       .  S
C726        H732   1.111       .  S
C733        C734   1.402       .  A
C733        C738   1.400       .  A
C733        H740   1.084       .  S
C734        C735   1.410       .  A
C735        C736   1.401       .  A
C735        C742   1.507       .  S
C736        C737   1.402       .  A
C736        H741   1.084       .  S
C737        C738   1.409       .  A
C738        C739   1.503       .  S
C739        H743   1.111       .  S
C739        H744   1.107       .  S
C739        H745   1.110       .  S
C742        H746   1.111       .  S
C742        H747   1.109       .  S
C742        H748   1.111       .  S
C749        C750   1.399       .  A
C749        C754   1.400       .  A
C749        H756   1.085       .  S
C750        C751   1.413       .  A
C751        C752   1.405       .  A
C751        C758   1.507       .  S
C752        C753   1.406       .  A
C752        H757   1.084       .  S
C753        C754   1.420       .  A
C754        C755   1.504       .  S
C755        H759   1.111       .  S
C755        H760   1.110       .  S
C755        H761   1.105       .  S
C758        H762   1.108       .  S
C758        H763   1.110   1_545  S
C758        H764   1.111       .  S
C765        C766   1.400       .  A
C765        C770   1.403       .  A
C765        H772   1.085       .  S
C766        C767   1.410       .  A
C767        C768   1.401       .  A
C767        C774   1.509       .  S
C768        C769   1.412       .  A
C768        H773   1.081       .  S
C769        C770   1.426       .  A
C770        C771   1.510       .  S
C771        H775   1.111       .  S
C771        H776   1.110       .  S
C771        H777   1.107       .  S
C774        H778   1.107       .  S
C774        H779   1.110       .  S
C774        H780   1.111       .  S
C781        C782   1.407       .  A
C781        C786   1.406       .  A
C781        H788   1.083       .  S
C782        C783   1.417       .  A
C783        C784   1.401       .  A
C783        C790   1.508       .  S
C784        C785   1.404       .  A
C784        H789   1.085       .  S
C785        C786   1.416       .  A
C786        C787   1.508       .  S
C787        H791   1.111       .  S
C787        H792   1.110       .  S
C787        H793   1.108       .  S
C790        H794   1.108       .  S
C790        H795   1.110       .  S
C790        H796   1.111       .  S
C797        C798   1.401       .  A
C797        C802   1.405       .  A
C797        H804   1.084       .  S
C798        C799   1.415       .  A
C799        C800   1.405       .  A
C799        C806   1.508       .  S
C800        C801   1.406       .  A
C800        H805   1.084       .  S
C801        C802   1.419       .  A
C802        C803   1.503       .  S
C803        H807   1.111       .  S
C803        H808   1.110       .  S
C803        H809   1.106       .  S
C806        H810   1.108       .  S
C806        H811   1.110   1_655  S
C806        H812   1.111       .  S
C813        C814   1.400       .  A
C813        C818   1.402       .  A
C813        H820   1.085       .  S
C814        C815   1.414       .  A
C815        C816   1.405       .  A
C815        C822   1.508       .  S
C816        C817   1.407       .  A
C816        H821   1.083       .  S
C817        C818   1.420       .  A
C818        C819   1.507       .  S
C819        H823   1.111       .  S
C819        H824   1.110       .  S
C819        H825   1.107       .  S
C822        H826   1.108       .  S
C822        H827   1.110       .  S
C822        H828   1.111       .  S
C829        C830   1.405       .  A
C829        C834   1.405       .  A
C829        H836   1.085       .  S
C830        C831   1.413       .  A
C831        C832   1.404       .  A
C831        C838   1.508   1_655  S
C832        C833   1.409       .  A
C832        H837   1.083       .  S
C833        C834   1.420       .  A
C834        C835   1.508       .  S
C835        H839   1.111       .  S
C835        H840   1.107       .  S
C835        H841   1.110       .  S
C838        H842   1.110       .  S
C838        H843   1.108       .  S
C838        H844   1.111       .  S
C845        C846   1.402       .  A
C845        C850   1.401       .  A
C845        H852   1.084       .  S
C846        C847   1.411       .  A
C847        C848   1.401       .  A
C847        C854   1.508       .  S
C848        C849   1.407       .  A
C848        H853   1.084       .  S
C849        C850   1.418       .  A
C850        C851   1.510       .  S
C851        H855   1.111       .  S
C851        H856   1.106       .  S
C851        H857   1.110       .  S
C854        H858   1.108       .  S
C854        H859   1.110   1_545  S
C854        H860   1.111       .  S
C861        C862   1.403       .  A
C861        C866   1.399       .  A
C861        H868   1.084       .  S
C862        C863   1.413       .  A
C863        C864   1.395       .  A
C863        C870   1.508       .  S
C864        C865   1.402       .  A
C864        H869   1.085       .  S
C865        C866   1.413       .  A
C866        C867   1.508       .  S
C867        H871   1.111       .  S
C867        H872   1.110       .  S
C867        H873   1.107       .  S
C870        H874   1.107       .  S
C870        H875   1.110       .  S
C870        H876   1.110       .  S
C877        C878   1.404       .  A
C877        C882   1.403       .  A
C877        H884   1.085       .  S
C878        C879   1.410       .  A
C879        C880   1.401       .  A
C879        C886   1.508       .  S
C880        C881   1.410       .  A
C880        H885   1.082       .  S
C881        C882   1.418       .  A
C882        C883   1.508       .  S
C883        H887   1.111       .  S
C883        H888   1.107       .  S
C883        H889   1.110       .  S
C886        H890   1.110       .  S
C886        H891   1.108       .  S
C886        H892   1.111       .  S
C893        C894   1.402       .  A
C893        C898   1.406       .  A
C893        H900   1.084       .  S
C894        C895   1.411       .  A
C895        C896   1.397       .  A
C895        C902   1.509       .  S
C896        C897   1.403       .  A
C896        H901   1.084       .  S
C897        C898   1.414       .  A
C898        C899   1.506       .  S
C899        H903   1.111       .  S
C899        H904   1.108       .  S
C899        H905   1.110       .  S
C902        H906   1.108       .  S
C902        H907   1.110       .  S
C902        H908   1.111       .  S
C909        C910   1.413       .  A
C909        C914   1.402       .  A
C909        H916   1.081       .  S
C910        C911   1.424       .  A
C911        C912   1.405       .  A
C911        C918   1.508       .  S
C912        C913   1.402       .  A
C912        H917   1.084       .  S
C913        C914   1.410       .  A
C914        C915   1.510       .  S
C915        H919   1.111       .  S
C915        H920   1.111       .  S
C915        H921   1.107       .  S
C918        H922   1.108       .  S
C918        H923   1.110       .  S
C918        H924   1.111       .  S
C925        C926   1.403       .  A
C925        C930   1.398       .  A
C925        H932   1.085       .  S
C926        C927   1.410       .  A
C927        C928   1.403       .  A
C927        C934   1.506       .  S
C928        C929   1.403       .  A
C928        H933   1.084       .  S
C929        C930   1.410       .  A
C930        C931   1.508       .  S
C931        H935   1.111       .  S
C931        H936   1.109       .  S
C931        H937   1.110       .  S
C934        H938   1.110       .  S
C934        H939   1.109       .  S
C934        H940   1.111       .  S
C941        C942   1.406       .  A
C941        C946   1.401       .  A
C941        H948   1.084       .  S
C942        C943   1.421       .  A
C943        C944   1.403       .  A
C943        C950   1.509       .  S
C944        C945   1.400       .  A
C944        H949   1.084       .  S
C945        C946   1.412       .  A
C946        C947   1.509       .  S
C947        H951   1.111       .  S
C947        H952   1.110   1_545  S
C947        H953   1.108       .  S
C950        H954   1.110       .  S
C950        H955   1.106       .  S
C950        H956   1.111       .  S
C957        C958   1.405       .  A
C957        C962   1.399       .  A
C957        H964   1.083       .  S
C958        C959   1.418       .  A
C959        C960   1.405       .  A
C959        C966   1.506       .  S
C960        C961   1.399       .  A
C960        H965   1.084       .  S
C961        C962   1.413       .  A
C962        C963   1.510       .  S
C963        H967   1.111       .  S
C963        H968   1.108       .  S
C963        H969   1.110       .  S
C966        H970   1.110       .  S
C966        H971   1.107       .  S
C966        H972   1.111       .  S
C973        C974   1.406       .  A
C973        C978   1.399       .  A
C973        H980   1.083       .  S
C974        C975   1.422       .  A
C975        C976   1.405       .  A
C975        C982   1.508       .  S
C976        C977   1.401       .  A
C976        H981   1.084       .  S
C977        C978   1.411       .  A
C978        C979   1.508       .  S
C979        H983   1.111       .  S
C979        H984   1.109       .  S
C979        H985   1.111       .  S
C982        H986   1.110       .  S
C982        H987   1.107       .  S
C982        H988   1.111       .  S
C989        C990   1.400       .  A
C989        C994   1.401       .  A
C989        H996   1.084       .  S
C990        C991   1.412       .  A
C991        C992   1.398       .  A
C991        C998   1.508       .  S
C992        C993   1.402       .  A
C992        H997   1.084       .  S
C993        C994   1.414       .  A
C994        C995   1.508       .  S
C995        H999   1.111       .  S
C995       H1000   1.110       .  S
C995       H1001   1.107       .  S
C998       H1002   1.109       .  S
C998       H1003   1.110       .  S
C998       H1004   1.111       .  S
C1005      C1006   1.400       .  A
C1005      C1010   1.406       .  A
C1005      H1012   1.084       .  S
C1006      C1007   1.414       .  A
C1007      C1008   1.399       .  A
C1007      C1014   1.510       .  S
C1008      C1009   1.402       .  A
C1008      H1013   1.084       .  S
C1009      C1010   1.416       .  A
C1010      C1011   1.507       .  S
C1011      H1015   1.111       .  S
C1011      H1016   1.110       .  S
C1011      H1017   1.108       .  S
C1014      H1018   1.111   1_545  S
C1014      H1019   1.108   1_545  S
C1014      H1020   1.111   1_545  S
C1021      C1022   1.401       .  A
C1021      C1026   1.403       .  A
C1021      H1028   1.084       .  S
C1022      C1023   1.409       .  A
C1023      C1024   1.397       .  A
C1023      C1030   1.508       .  S
C1024      C1025   1.400       .  A
C1024      H1029   1.085       .  S
C1025      C1026   1.409       .  A
C1026      C1027   1.506       .  S
C1027      H1031   1.111       .  S
C1027      H1032   1.110       .  S
C1027      H1033   1.110       .  S
C1030      H1034   1.111       .  S
C1030      H1035   1.109       .  S
C1030      H1036   1.111       .  S
C1037      C1038   1.399       .  A
C1037      C1042   1.406       .  A
C1037      H1044   1.085       .  S
C1038      C1039   1.416       .  A
C1039      C1040   1.401       .  A
C1039      C1046   1.510       .  S
C1040      C1041   1.404       .  A
C1040      H1045   1.084       .  S
C1041      C1042   1.421       .  A
C1042      C1043   1.507       .  S
C1043      H1047   1.111       .  S
C1043      H1048   1.106       .  S
C1043      H1049   1.110       .  S
C1046      H1050   1.111   1_545  S
C1046      H1051   1.107   1_545  S
C1046      H1052   1.111   1_545  S
C1053      C1054   1.405       .  A
C1053      C1058   1.402       .  A
C1053      H1060   1.084       .  S
C1054      C1055   1.414       .  A
C1055      C1056   1.401       .  A
C1055      C1062   1.509       .  S
C1056      C1057   1.402       .  A
C1056      H1061   1.085       .  S
C1057      C1058   1.412       .  A
C1058      C1059   1.507       .  S
C1059      H1063   1.111       .  S
C1059      H1064   1.108       .  S
C1059      H1065   1.110       .  S
C1062      H1066   1.110       .  S
C1062      H1067   1.108       .  S
C1062      H1068   1.111       .  S
C1069      C1070   1.409       .  A
C1069      C1074   1.401       .  A
C1069      H1076   1.084       .  S
C1070      C1071   1.418       .  A
C1071      C1072   1.400       .  A
C1071      C1078   1.506       .  S
C1072      C1073   1.402       .  A
C1072      H1077   1.085       .  S
C1073      C1074   1.413       .  A
C1074      C1075   1.508   1_655  S
C1075      H1079   1.110       .  S
C1075      H1080   1.108       .  S
C1075      H1081   1.110   1_455  S
C1078      H1082   1.106       .  S
C1078      H1083   1.110       .  S
C1078      H1084   1.111       .  S
C1085      C1086   1.401       .  A
C1085      C1090   1.398       .  A
C1085      H1092   1.085       .  S
C1086      C1087   1.412       .  A
C1087      C1088   1.402       .  A
C1087      C1094   1.507       .  S
C1088      C1089   1.402       .  A
C1088      H1093   1.084       .  S
C1089      C1090   1.411       .  A
C1090      C1091   1.508       .  S
C1091      H1095   1.111       .  S
C1091      H1096   1.110       .  S
C1091      H1097   1.108       .  S
C1094      H1098   1.108       .  S
C1094      H1099   1.110       .  S
C1094      H1100   1.111       .  S
C1101      C1102   1.398       .  A
C1101      C1106   1.400       .  A
C1101      H1108   1.085       .  S
C1102      C1103   1.408       .  A
C1103      C1104   1.401       .  A
C1103      C1110   1.507       .  S
C1104      C1105   1.405       .  A
C1104      H1109   1.084       .  S
C1105      C1106   1.415       .  A
C1106      C1107   1.506       .  S
C1107      H1111   1.111       .  S
C1107      H1112   1.106       .  S
C1107      H1113   1.110       .  S
C1110      H1114   1.111       .  S
C1110      H1115   1.110       .  S
C1110      H1116   1.111       .  S
C1117      C1118   1.408       .  A
C1117      C1122   1.404       .  A
C1117      H1124   1.084       .  S
C1118      C1119   1.416       .  A
C1119      C1120   1.402       .  A
C1119      C1126   1.509       .  S
C1120      C1121   1.406       .  A
C1120      H1125   1.084       .  S
C1121      C1122   1.414       .  A
C1122      C1123   1.508       .  S
C1123      H1127   1.111       .  S
C1123      H1128   1.110       .  S
C1123      H1129   1.106       .  S
C1126      H1130   1.106       .  S
C1126      H1131   1.110       .  S
C1126      H1132   1.111       .  S
C1133      C1134   1.401       .  A
C1133      C1138   1.410       .  A
C1133      H1140   1.084       .  S
C1134      C1135   1.408       .  A
C1135      C1136   1.399       .  A
C1135      C1142   1.509       .  S
C1136      C1137   1.407       .  A
C1136      H1141   1.083       .  S
C1137      C1138   1.420       .  A
C1138      C1139   1.505       .  S
C1139      H1143   1.111       .  S
C1139      H1144   1.110       .  S
C1139      H1145   1.107       .  S
C1142      H1146   1.110       .  S
C1142      H1147   1.110       .  S
C1142      H1148   1.111       .  S
C1149      C1150   1.401       .  A
C1149      C1154   1.408       .  A
C1149      H1156   1.084       .  S
C1150      C1151   1.418       .  A
C1151      C1152   1.396       .  A
C1151      C1158   1.511       .  S
C1152      C1153   1.400       .  A
C1152      H1157   1.084       .  S
C1153      C1154   1.416       .  A
C1154      C1155   1.507       .  S
C1155      H1159   1.111       .  S
C1155      H1160   1.108       .  S
C1155      H1161   1.110       .  S
C1158      H1162   1.109       .  S
C1158      H1163   1.111       .  S
C1158      H1164   1.111       .  S
C1165      C1166   1.400       .  A
C1165      C1170   1.400       .  A
C1165      H1172   1.085       .  S
C1166      C1167   1.413       .  A
C1167      C1168   1.409       .  A
C1167      C1174   1.507       .  S
C1168      C1169   1.410       .  A
C1168      H1173   1.083       .  S
C1169      C1170   1.423       .  A
C1170      C1171   1.510       .  S
C1171      H1175   1.111       .  S
C1171      H1176   1.110       .  S
C1171      H1177   1.107       .  S
C1174      H1178   1.109       .  S
C1174      H1179   1.110       .  S
C1174      H1180   1.111       .  S
C1181      C1182   1.400       .  A
C1181      C1186   1.407       .  A
C1181      H1188   1.084       .  S
C1182      C1183   1.406       .  A
C1183      C1184   1.394       .  A
C1183      C1190   1.510       .  S
C1184      C1185   1.408       .  A
C1184      H1189   1.079       .  S
C1185      C1186   1.419       .  A
C1186      C1187   1.507       .  S
C1187      H1191   1.111       .  S
C1187      H1192   1.109       .  S
C1187      H1193   1.110       .  S
C1190      H1194   1.110       .  S
C1190      H1195   1.110       .  S
C1190      H1196   1.111       .  S
C1197      C1198   1.402       .  A
C1197      C1202   1.396       .  A
C1197      H1204   1.084       .  S
C1198      C1199   1.413       .  A
C1199      C1200   1.412       .  A
C1199      C1206   1.505       .  S
C1200      C1201   1.409       .  A
C1200      H1205   1.083       .  S
C1201      C1202   1.420       .  A
C1202      C1203   1.512       .  S
C1203      H1207   1.111       .  S
C1203      H1208   1.109       .  S
C1203      H1209   1.111       .  S
C1206      H1210   1.108       .  S
C1206      H1211   1.110       .  S
C1206      H1212   1.111       .  S
C1213      C1214   1.407       .  A
C1213      C1218   1.401       .  A
C1213      H1220   1.084       .  S
C1214      C1215   1.419       .  A
C1215      C1216   1.402       .  A
C1215      C1222   1.508       .  S
C1216      C1217   1.401       .  A
C1216      H1221   1.085       .  S
C1217      C1218   1.411       .  A
C1218      C1219   1.509       .  S
C1219      H1223   1.111       .  S
C1219      H1224   1.110       .  S
C1219      H1225   1.108       .  S
C1222      H1226   1.107       .  S
C1222      H1227   1.110       .  S
C1222      H1228   1.111       .  S
C1229      C1230   1.406       .  A
C1229      C1234   1.400       .  A
C1229      H1236   1.084       .  S
C1230      C1231   1.414       .  A
C1231      C1232   1.403       .  A
C1231      C1238   1.508       .  S
C1232      C1233   1.402       .  A
C1232      H1237   1.084       .  S
C1233      C1234   1.408       .  A
C1234      C1235   1.508       .  S
C1235      H1239   1.111       .  S
C1235      H1240   1.110       .  S
C1235      H1241   1.110       .  S
C1238      H1242   1.110       .  S
C1238      H1243   1.107       .  S
C1238      H1244   1.111       .  S
C1245      C1246   1.400       .  A
C1245      C1250   1.402       .  A
C1245      H1252   1.084       .  S
C1246      C1247   1.414       .  A
C1247      C1248   1.401       .  A
C1247      C1254   1.508       .  S
C1248      C1249   1.399       .  A
C1248      H1253   1.084       .  S
C1249      C1250   1.415       .  A
C1250      C1251   1.508       .  S
C1251      H1255   1.111       .  S
C1251      H1256   1.111       .  S
C1251      H1257   1.109       .  S
C1254      H1258   1.108       .  S
C1254      H1259   1.110       .  S
C1254      H1260   1.111       .  S
