geometry optimzed in LAMMPS
_audit_creation_date              2020-12-01 
_audit_creation_method            'lammps2cif' 
_symmetry_space_group_name_H-M    'P1' 
_symmetry_Int_Tables_number       1 
_symmetry_cell_setting            triclinic 
loop_ 
_symmetry_equiv_pos_as_xyz 
  x,y,z 
_cell_length_a                    48.71414121 
_cell_length_b                    48.8178945320466 
_cell_length_c                    32.040326391450726 
_cell_angle_alpha                 90.29025059081103 
_cell_angle_beta                  89.68130023158079 
_cell_angle_gamma                 120.12141833305778 
loop_ 
_atom_site_label 
_atom_site_type_symbol 
_atom_site_fract_x 
_atom_site_fract_y 
_atom_site_fract_z 
_atom_site_charge 
In1        In  0.33585938  0.86270372  0.58413160     1.36900
C2          C  0.35789806  0.92430112  0.57264569     0.77900
O3          O  0.32008741  0.87084217  0.64638798    -0.60600
O4          O  0.34042326  0.84135616  0.64407425    -0.51500
C5          C  0.28121341  0.81959475  0.55039849     0.70600
O6          O  0.29859377  0.84654912  0.53469480    -0.46300
C7          C  0.38023764  0.85583985  0.54430678     0.75300
O8          O  0.32858180  0.90457174  0.57470845    -0.58200
O9          O  0.38002480  0.85909937  0.58338240    -0.48300
O10         O  0.37541777  0.91255075  0.57796481    -0.54600
C11         C  0.32823445  0.85387516  0.66640695     0.85400
O12         O  0.29162306  0.81478352  0.58378115    -0.56500
O13         O  0.35651131  0.85399993  0.52609749    -0.59800
In14       In  0.13216342  0.66225823  0.43275181     1.36900
C15         C  0.06942867  0.63781006  0.44197491     0.77900
O16         O  0.12232810  0.67731298  0.37199420    -0.60600
O17         O  0.15311579  0.65835271  0.37203985    -0.51500
C18         C  0.17498995  0.71698072  0.46679938     0.70600
O19         O  0.14909587  0.69819129  0.48448740    -0.46300
C20         C  0.14514714  0.62029658  0.46668061     0.75300
O21         O  0.08833711  0.66725869  0.44010252    -0.58200
O22         O  0.13977055  0.62053821  0.42826910    -0.48300
O23         O  0.08292349  0.62157978  0.44067408    -0.54600
C24         C  0.13920678  0.66945187  0.35084945     0.85400
O25         O  0.17833287  0.70822703  0.43107247    -0.56500
O26         O  0.14437177  0.64195522  0.48738234    -0.59800
In27       In  0.33712800  0.86533827  0.92749185     1.36900
C28         C  0.36281074  0.92824709  0.92963197     0.77900
O29         O  0.36332321  0.86068360  0.98181962    -0.60600
O30         O  0.37832250  0.85654283  0.92129022    -0.51500
C31         C  0.28556565  0.82365293  0.96955634     0.70600
O32         O  0.30563318  0.85000314  0.98486756    -0.46300
C33         C  0.32413132  0.85318321  0.84667859     0.75300
O34         O  0.33389124  0.90994928  0.93828864    -0.58200
O35         O  0.33799030  0.84195001  0.86781559    -0.48300
O36         O  0.37756978  0.91409356  0.92022463    -0.54600
C37         C  0.38286142  0.85700935  0.96004143     0.85400
O38         O  0.29145983  0.81923982  0.93263063    -0.56500
O39         O  0.31546181  0.86954612  0.86763375    -0.59800
In40       In  0.13446217  0.66607983  0.08824119     1.36900
C41         C  0.07263204  0.64326793  0.07649925     0.77900
O42         O  0.14363405  0.64294122  0.03345166    -0.60600
O43         O  0.13976410  0.62270147  0.09287844    -0.51500
C44         C  0.17898728  0.71970039  0.05278972     0.70600
O45         O  0.15170125  0.70295693  0.03751667    -0.46300
C46         C  0.13924717  0.67292888  0.17066853     0.75300
O47         O  0.09186536  0.67266345  0.07886197    -0.58200
O48         O  0.15438474  0.66297623  0.14949331    -0.48300
O49         O  0.08532070  0.62641353  0.07991004    -0.54600
C50         C  0.14368780  0.62107278  0.05419493     0.85400
O51         O  0.18294066  0.70952799  0.08695883    -0.56500
O52         O  0.12246757  0.68051438  0.14925350    -0.59800
In53       In  0.13319839  0.46237587  0.58486566     1.36900
C54         C  0.07004109  0.43042128  0.57480519     0.77900
O55         O  0.12234799  0.43710734  0.64623958    -0.60600
O56         O  0.15366261  0.48684257  0.64539908    -0.51500
C57         C  0.17310764  0.44629680  0.54959983     0.70600
O58         O  0.14717476  0.44029028  0.53335151    -0.46300
C59         C  0.14899473  0.51746296  0.54892515     0.75300
O60         O  0.08634413  0.41688319  0.57417773    -0.58200
O61         O  0.14764818  0.51389280  0.58794623    -0.48300
O62         O  0.08617050  0.45979413  0.58076199    -0.54600
C63         C  0.13922953  0.46204737  0.66704974     0.85400
O64         O  0.17798506  0.45923759  0.58496494    -0.56500
O65         O  0.14407729  0.49324397  0.52858091    -0.59800
In66       In  0.33009928  0.45777637  0.42278126     1.36900
C67         C  0.35136001  0.41721741  0.43437375     0.77900
O68         O  0.31414684  0.43531454  0.36003369    -0.60600
O69         O  0.33865769  0.48538095  0.36328509    -0.51500
C70         C  0.27557846  0.44562466  0.45945395     0.70600
O71         O  0.29364081  0.43663099  0.47428906    -0.46300
C72         C  0.37502823  0.51242382  0.45488434     0.75300
O73         O  0.32493152  0.40893549  0.41782171    -0.58200
O74         O  0.37687511  0.50318911  0.41865151    -0.48300
O75         O  0.36606025  0.44565474  0.44598056    -0.54600
C76         C  0.32547368  0.46107094  0.34039909     0.85400
O77         O  0.28501072  0.46004338  0.42525417    -0.56500
O78         O  0.34966780  0.49396593  0.47401473    -0.59800
In79       In  0.13245371  0.46278651  0.92941482     1.36900
C80         C  0.06939727  0.42929049  0.93456446     0.77900
O81         O  0.13662205  0.49061072  0.98771407    -0.60600
O82         O  0.14730497  0.51466032  0.93010833    -0.51500
C83         C  0.17442454  0.44958258  0.96233331     0.70600
O84         O  0.14710430  0.43945908  0.97758207    -0.46300
C85         C  0.13912469  0.46037465  0.84746104     0.75300
O86         O  0.08629822  0.41730084  0.94375664    -0.58200
O87         O  0.15102789  0.48588510  0.86804105    -0.48300
O88         O  0.08500012  0.45771484  0.92307722    -0.54600
C89         C  0.14423009  0.51612109  0.96900078     0.85400
O90         O  0.17987711  0.46569421  0.92962384    -0.56500
O91         O  0.12445965  0.43565056  0.86931921    -0.59800
In92       In  0.33365658  0.46237502  0.07752520     1.36900
C93         C  0.36293951  0.42871445  0.07216044     0.77900
O94         O  0.35654261  0.48929459  0.01825710    -0.60600
O95         O  0.36984352  0.51408792  0.07558952    -0.51500
C96         C  0.27821360  0.44919706  0.04545869     0.70600
O97         O  0.29480942  0.43834592  0.03043338    -0.46300
C98         C  0.32547428  0.46096706  0.15975078     0.75300
O99         O  0.33400203  0.41693552  0.06294299    -0.58200
O100        O  0.34035225  0.48632438  0.13922766    -0.48300
O101        O  0.37613209  0.45718013  0.08375233    -0.54600
C102        C  0.37411976  0.51514584  0.03666780     0.85400
O103        O  0.28947903  0.46586578  0.07774475    -0.56500
O104        O  0.31396597  0.43612101  0.13774732    -0.59800
In105      In  0.54028395  0.87150969  0.41791599     1.36900
C106        C  0.57519480  0.93465362  0.41984512     0.77900
O107        O  0.56738768  0.87336370  0.35990723    -0.60600
O108        O  0.51749382  0.85278559  0.35578287    -0.51500
C109        C  0.54532566  0.82496586  0.45351975     0.70600
O110        O  0.56832337  0.85314588  0.45338845    -0.46300
C111        C  0.48987103  0.86488938  0.45956678     0.75300
O112        O  0.58290647  0.91732703  0.44003495    -0.58200
O113        O  0.49015487  0.86121569  0.42058719    -0.48300
O114        O  0.54984994  0.91945867  0.39951735    -0.54600
C115        C  0.54317901  0.86090866  0.33681490     0.85400
O116        O  0.52126965  0.82110445  0.43403907    -0.56500
O117        O  0.51579025  0.87242835  0.47734123    -0.59800
In118      In  0.52993473  0.66462177  0.57730735     1.36900
C119        C  0.56506546  0.63654185  0.57563980     0.77900
O120        O  0.55807696  0.69001676  0.63473456    -0.60600
O121        O  0.50828085  0.66038820  0.64000224    -0.51500
C122        C  0.53669294  0.71664023  0.53990576     0.70600
O123        O  0.55777446  0.70883241  0.53797976    -0.46300
C124        C  0.47887918  0.61958389  0.53837280     0.75300
O125        O  0.57366055  0.66257098  0.55743286    -0.58200
O126        O  0.47851384  0.62671474  0.57616562    -0.48300
O127        O  0.53863585  0.62524753  0.59386143    -0.54600
C128        C  0.53414126  0.67777051  0.65846656     0.85400
O129        O  0.51295502  0.69829066  0.56166011    -0.56500
O130        O  0.50538657  0.63598520  0.52051116    -0.59800
In131      In  0.54518994  0.87153304  0.07531211     1.36900
C132        C  0.57992398  0.93465178  0.07595693     0.77900
O133        O  0.51684833  0.87053163  0.01971512    -0.60600
O134        O  0.49292387  0.85545214  0.07750483    -0.51500
C135        C  0.55613670  0.82872669  0.03770050     0.70600
O136        O  0.56559882  0.85582233  0.02250475    -0.46300
C137        C  0.54832249  0.86320064  0.15663257     0.75300
O138        O  0.59044052  0.91774306  0.06075576    -0.58200
O139        O  0.52260187  0.85168459  0.13663048    -0.48300
O140        O  0.55187151  0.91917104  0.08930568    -0.54600
C141        C  0.49112650  0.86058453  0.03941616     0.85400
O142        O  0.54246838  0.82437405  0.07248801    -0.56500
O143        O  0.57296452  0.87801057  0.13433788    -0.59800
In144      In  0.53428596  0.66440214  0.92011607     1.36900
C145        C  0.56840723  0.63529547  0.92422795     0.77900
O146        O  0.50481749  0.64219663  0.97754207    -0.60600
O147        O  0.48330819  0.62555340  0.91866855    -0.51500
C148        C  0.54907038  0.71930323  0.95729248     0.70600
O149        O  0.55624030  0.69998506  0.97260474    -0.46300
C150        C  0.53451630  0.67498668  0.83860539     0.75300
O151        O  0.58050499  0.66471350  0.93016422    -0.58200
O152        O  0.50960066  0.66290035  0.86057384    -0.48300
O153        O  0.53929209  0.62135861  0.91586626    -0.54600
C154        C  0.48045182  0.62263130  0.95777223     0.85400
O155        O  0.53524277  0.71089081  0.92260137    -0.56500
O156        O  0.55948257  0.68228758  0.85881251    -0.59800
In157      In  0.86931527  0.33814797  0.92592610     1.36900
C158        C  0.93210992  0.36659651  0.93285344     0.77900
O159        O  0.87498938  0.31643450  0.86611038    -0.60600
O160        O  0.85143770  0.34279532  0.86408148    -0.51500
C161        C  0.82341400  0.28551056  0.96107845     0.70600
O162        O  0.85212989  0.29260169  0.96262799    -0.46300
C163        C  0.86130724  0.38224986  0.96372974     0.75300
O164        O  0.91398055  0.33941495  0.94786985    -0.58200
O165        O  0.85807011  0.37696235  0.92503629    -0.48300
O166        O  0.91783402  0.37871146  0.91501181    -0.54600
C167        C  0.86186225  0.32778497  0.84381277     0.85400
O168        O  0.81873966  0.30465944  0.94050340    -0.56500
O169        O  0.86836309  0.36440875  0.98372321    -0.59800
In170      In  0.66793514  0.13443572  0.08548322     1.36900
C171        C  0.64588744  0.07196201  0.08142802     0.77900
O172        O  0.69674524  0.13955918  0.14286328    -0.60600
O173        O  0.66174325  0.15301563  0.14669844    -0.51500
C174        C  0.71767955  0.18156863  0.04680777     0.70600
O175        O  0.71625667  0.15559413  0.05488920    -0.46300
C176        C  0.61943239  0.13477290  0.04821678     0.75300
O177        O  0.66711943  0.09109189  0.05678527    -0.58200
O178        O  0.62537623  0.14098324  0.08648538    -0.48300
O179        O  0.63710249  0.08514661  0.10794172    -0.54600
C180        C  0.68263433  0.14989100  0.16552373     0.85400
O181        O  0.69397657  0.18316619  0.05912741    -0.56500
O182        O  0.63815890  0.12801706  0.02953645    -0.59800
In183      In  0.86966356  0.33932896  0.58053255     1.36900
C184        C  0.93248331  0.36463308  0.57170918     0.77900
O185        O  0.86651871  0.36188697  0.52094971    -0.60600
O186        O  0.85953354  0.37945138  0.57815350    -0.51500
C187        C  0.82309038  0.28547991  0.54847584     0.70600
O188        O  0.85189610  0.29523009  0.54024284    -0.46300
C189        C  0.86226996  0.33134913  0.66321578     0.75300
O190        O  0.91351313  0.33538353  0.56662145    -0.58200
O191        O  0.85328542  0.34739766  0.64283557    -0.48300
O192        O  0.91907565  0.38019822  0.58098409    -0.54600
C193        C  0.86083592  0.38162404  0.53890051     0.85400
O194        O  0.81870195  0.30275627  0.57371429    -0.56500
O195        O  0.87478228  0.31910854  0.64106407    -0.59800
In196      In  0.66765020  0.13500369  0.42403769     1.36900
C197        C  0.64294154  0.07220667  0.42528659     0.77900
O198        O  0.63717485  0.13091043  0.47875810    -0.60600
O199        O  0.62416926  0.13975047  0.41941490    -0.51500
C200        C  0.71653910  0.18068052  0.46575572     0.70600
O201        O  0.71422933  0.15415312  0.45834937    -0.46300
C202        C  0.68526924  0.15055772  0.34474864     0.75300
O203        O  0.66496653  0.09019112  0.44985916    -0.58200
O204        O  0.66757646  0.15815822  0.36434392    -0.48300
O205        O  0.63445261  0.08665236  0.40084201    -0.54600
C206        C  0.61798425  0.13558651  0.45791506     0.85400
O207        O  0.69413846  0.18355735  0.45142831    -0.56500
O208        O  0.69563282  0.13634208  0.36667054    -0.59800
In209      In  0.46492731  0.12826350  0.92063084     1.36900
C210        C  0.43139472  0.06548765  0.92636339     0.77900
O211        O  0.43690901  0.12295040  0.86209473    -0.60600
O212        O  0.48699513  0.14634806  0.85831072    -0.51500
C213        C  0.45922130  0.17469594  0.95679033     0.70600
O214        O  0.43688206  0.14622589  0.95748044    -0.46300
C215        C  0.51513989  0.13323389  0.96006718     0.75300
O216        O  0.42133604  0.08286253  0.94140534    -0.58200
O217        O  0.51464642  0.13673382  0.92113795    -0.48300
O218        O  0.45792458  0.08044506  0.90851123    -0.54600
C219        C  0.46116885  0.13585973  0.83897584     0.85400
O220        O  0.48336570  0.17892642  0.93675444    -0.56500
O221        O  0.49019393  0.12819027  0.97893474    -0.59800
In222      In  0.46918230  0.33467154  0.07625147     1.36900
C223        C  0.43556057  0.36402289  0.07113959     0.77900
O224        O  0.44251860  0.31111841  0.13582329    -0.60600
O225        O  0.49130407  0.34513325  0.13966817    -0.51500
C226        C  0.46267238  0.28183343  0.04156871     0.70600
O227        O  0.44136625  0.28928098  0.03872403    -0.46300
C228        C  0.52018067  0.37544254  0.03310404     0.75300
O229        O  0.42471557  0.33579438  0.05877631    -0.58200
O230        O  0.52087158  0.36953739  0.07126470    -0.48300
O231        O  0.46343202  0.37678484  0.08495140    -0.54600
C232        C  0.46620082  0.32674950  0.15916020     0.85400
O233        O  0.48589808  0.30039513  0.06382747    -0.56500
O234        O  0.49304973  0.36006142  0.01667389    -0.59800
In235      In  0.45680740  0.12287412  0.57556784     1.36900
C236        C  0.41879689  0.06012760  0.56614391     0.77900
O237        O  0.48493365  0.12539652  0.51891216    -0.60600
O238        O  0.50689577  0.13297060  0.57832847    -0.51500
C239        C  0.45119119  0.16765238  0.53546490     0.70600
O240        O  0.42981381  0.13891054  0.53424723    -0.46300
C241        C  0.45899174  0.13172285  0.65828784     0.75300
O242        O  0.40788870  0.07783851  0.57611524    -0.58200
O243        O  0.48197120  0.13446027  0.63701743    -0.48300
O244        O  0.44827407  0.07471145  0.56058388    -0.54600
C245        C  0.50948922  0.13123087  0.53927432     0.85400
O246        O  0.47420414  0.17335402  0.55862873    -0.56500
O247        O  0.43474337  0.12501589  0.63695873    -0.59800
In248      In  0.46007614  0.32787184  0.42391724     1.36900
C249        C  0.41890755  0.34837228  0.43799561     0.77900
O250        O  0.49233137  0.34978614  0.47930223    -0.60600
O251        O  0.50582844  0.37432258  0.42170185    -0.51500
C252        C  0.45118121  0.27243527  0.45243954     0.70600
O253        O  0.43091148  0.28094011  0.45809487    -0.46300
C254        C  0.46436639  0.32551033  0.34069068     0.75300
O255        O  0.41676011  0.33105108  0.40758270    -0.58200
O256        O  0.48761573  0.34395783  0.36323185    -0.48300
O257        O  0.44097685  0.35359355  0.46265572    -0.54600
C258        C  0.51240094  0.37414042  0.45977887     0.85400
O259        O  0.47495502  0.29180650  0.43156486    -0.56500
O260        O  0.43934707  0.30802705  0.36101567    -0.59800
In261      In  0.66909526  0.53550878  0.91775600     1.36900
C262        C  0.64018743  0.56969747  0.92465838     0.77900
O263        O  0.68447256  0.56081956  0.85658714    -0.60600
O264        O  0.66963082  0.51195399  0.85711406    -0.51500
C265        C  0.72415433  0.55209411  0.95477808     0.70600
O266        O  0.70376623  0.55767154  0.97078280    -0.46300
C267        C  0.62775414  0.48041697  0.95308337     0.75300
O268        O  0.66986151  0.58205009  0.92815269    -0.58200
O269        O  0.62913449  0.48511350  0.91428249    -0.48300
O270        O  0.62594582  0.54028482  0.91834536    -0.54600
C271        C  0.67910860  0.53669925  0.83557299     0.85400
O272        O  0.71654981  0.53878434  0.91958579    -0.56500
O273        O  0.64855418  0.50357128  0.97361080    -0.59800
In274      In  0.87302047  0.54482156  0.07156675     1.36900
C275        C  0.93600822  0.57832988  0.06556992     0.77900
O276        O  0.88298711  0.57068481  0.13270552    -0.60600
O277        O  0.85094265  0.52115450  0.13235555    -0.51500
C278        C  0.83220378  0.55810665  0.03467406     0.70600
O279        O  0.85905040  0.56622699  0.01921451    -0.46300
C280        C  0.86071258  0.49067169  0.03556921     0.75300
O281        O  0.91912367  0.59121728  0.06366994    -0.58200
O282        O  0.85911421  0.49370912  0.07447856    -0.48300
O283        O  0.92050560  0.54879998  0.07035556    -0.54600
C284        C  0.86536715  0.54617649  0.15378132     0.85400
O285        O  0.82711461  0.54460825  0.06950826    -0.56500
O286        O  0.86719977  0.51512926  0.01495383    -0.59800
In287      In  0.66526055  0.53571818  0.57317876     1.36900
C288        C  0.63745761  0.57122316  0.57226211     0.77900
O289        O  0.63872917  0.50825245  0.51563996    -0.60600
O290        O  0.62710791  0.48424561  0.57327347    -0.51500
C291        C  0.71994966  0.54649513  0.53797806     0.70600
O292        O  0.70354604  0.55768585  0.52363773    -0.46300
C293        C  0.67637870  0.53861775  0.65490289     0.75300
O294        O  0.66512614  0.58135763  0.55790385    -0.58200
O295        O  0.66198604  0.51289212  0.63483885    -0.48300
O296        O  0.62474601  0.54345846  0.58632089    -0.54600
C297        C  0.62121808  0.48279379  0.53481701     0.85400
O298        O  0.70880150  0.53063223  0.57083804    -0.56500
O299        O  0.68610149  0.56309011  0.63264057    -0.59800
In300      In  0.87009211  0.53852750  0.41657893     1.36900
C301        C  0.93242024  0.57196825  0.43115971     0.77900
O302        O  0.85813068  0.50561794  0.47084110    -0.60600
O303        O  0.86262724  0.48895799  0.41162369    -0.51500
C304        C  0.82615685  0.54930732  0.45152493     0.70600
O305        O  0.85298179  0.55848508  0.46763007    -0.46300
C306        C  0.86664012  0.54455237  0.33445503     0.75300
O307        O  0.91499162  0.58428113  0.43372685    -0.58200
O308        O  0.85037962  0.51873613  0.35365012    -0.48300
O309        O  0.91787196  0.54325750  0.42075421    -0.54600
C310        C  0.85840363  0.48366817  0.45030216     0.85400
O311        O  0.82234370  0.53585823  0.41665360    -0.56500
O312        O  0.88430680  0.56768501  0.35769226    -0.59800
C313        C  0.79865137  0.54962339  0.51688488    -0.12000
C314        C  0.80061776  0.55206272  0.47320267     0.05100
C315        C  0.77685960  0.55459586  0.45143053    -0.07200
C316        C  0.75166408  0.55425342  0.47338583    -0.08000
C317        C  0.74890396  0.55030554  0.51688216    -0.02500
C318        C  0.77288237  0.54814313  0.53869659     0.04300
N319        N  0.77136586  0.54407948  0.58294416     0.66800
H320        H  0.81647654  0.54743213  0.53410761     0.15700
H321        H  0.73352651  0.55583986  0.45607530     0.15400
N322        N  0.77785260  0.55754477  0.40704261     0.74500
O323        O  0.76067973  0.51667238  0.59780681    -0.39000
O324        O  0.78699569  0.56787699  0.60614744    -0.38900
O325        O  0.76115781  0.53331378  0.38499120    -0.39600
O326        O  0.78881210  0.58463909  0.39105716    -0.39700
C327        C  0.88592551  0.57346881  0.22187777    -0.12000
C328        C  0.86315633  0.54670111  0.19997377     0.05100
C329        C  0.84035784  0.52033398  0.22288031    -0.07200
C330        C  0.84150356  0.52068337  0.26652836    -0.08000
C331        C  0.86514732  0.54683141  0.28841230    -0.02500
C332        C  0.88728080  0.57369047  0.26559793     0.04300
N333        N  0.91243508  0.60069216  0.28591972     0.66800
H334        H  0.90370423  0.59387685  0.20502242     0.15700
H335        H  0.82402535  0.50003427  0.28329296     0.15400
N336        N  0.81600963  0.49276684  0.20252320     0.74500
O337        O  0.93838663  0.60156888  0.29246487    -0.39000
O338        O  0.91121292  0.62584085  0.28890162    -0.38900
O339        O  0.81878726  0.46849809  0.19927362    -0.39600
O340        O  0.78924231  0.49026704  0.19675436    -0.39700
C341        C  0.68968963  0.56571264  0.76847952    -0.12000
C342        C  0.68225290  0.53754105  0.78932583     0.05100
C343        C  0.67554411  0.51054125  0.76526468    -0.07200
C344        C  0.67464057  0.51174145  0.72158320    -0.08000
C345        C  0.68056659  0.53951616  0.70088915    -0.02500
C346        C  0.68881079  0.56691465  0.72486107     0.04300
N347        N  0.69439575  0.59567582  0.70581942     0.66800
H348        H  0.69495072  0.58672306  0.78610141     0.15700
H349        H  0.66880142  0.49062084  0.70384708     0.15400
N350        N  0.66909611  0.48152763  0.78442625     0.74500
O351        O  0.67129870  0.59997188  0.69937005    -0.39000
O352        O  0.72231272  0.61892517  0.70391519    -0.38900
O353        O  0.64093158  0.45868207  0.78581364    -0.39600
O354        O  0.69169339  0.47647539  0.79098216    -0.39700
C355        C  0.77887777  0.56092651  0.95118015    -0.12000
C356        C  0.75405581  0.55925165  0.97560593     0.05100
C357        C  0.75731491  0.56146362  0.01942563    -0.07200
C358        C  0.78383092  0.56262741  0.03794644    -0.08000
C359        C  0.80774004  0.56238704  0.01356980    -0.02500
C360        C  0.80573206  0.56280308  0.96969768     0.04300
N361        N  0.82946168  0.56268967  0.94341091     0.66800
H362        H  0.77697192  0.55966281  0.91754351     0.15700
H363        H  0.78522497  0.56274420  0.07161591     0.15400
N364        N  0.73310306  0.56052130  0.04578481     0.74500
O365        O  0.82618790  0.53663085  0.93107809    -0.39000
O366        O  0.84944156  0.58795543  0.92555523    -0.38900
O367        O  0.71414374  0.53512303  0.06424757    -0.39600
O368        O  0.73502792  0.58615200  0.05745580    -0.39700
C369        C  0.56378913  0.42483245  0.45403462    -0.12000
C370        C  0.54103666  0.40072192  0.47957230     0.05100
C371        C  0.54587674  0.40314893  0.52322677    -0.07200
C372        C  0.57267475  0.42947640  0.54023813    -0.08000
C373        C  0.59497902  0.45401941  0.51474234    -0.02500
C374        C  0.59047646  0.45121880  0.47105918     0.04300
N375        N  0.61270316  0.47484602  0.44330091     0.66800
H376        H  0.56082098  0.42339658  0.42053483     0.15700
H377        H  0.57542439  0.43113036  0.57376945     0.15400
N378        N  0.52322664  0.37991774  0.55105781     0.74500
O379        O  0.63523983  0.47201655  0.42859843    -0.39000
O380        O  0.60584263  0.49396836  0.42652800    -0.38900
O381        O  0.52915948  0.36009078  0.56769103    -0.39600
O382        O  0.50103559  0.38342830  0.56553145    -0.39700
C383        C  0.42152232  0.19297253  0.50735818    -0.12000
C384        C  0.45010421  0.19277661  0.51133677     0.05100
C385        C  0.47787174  0.21726380  0.49286652    -0.07200
C386        C  0.47706329  0.24205316  0.47253230    -0.08000
C387        C  0.44901325  0.24344717  0.47043307    -0.02500
C388        C  0.42078886  0.21818951  0.48734911     0.04300
N389        N  0.39124136  0.21757894  0.48437562     0.66800
H390        H  0.39995363  0.17402944  0.52079483     0.15700
H391        H  0.49888598  0.26079109  0.45932851     0.15400
N392        N  0.50711510  0.21708419  0.49379280     0.74500
O393        O  0.37319968  0.20364546  0.45388469    -0.39000
O394        O  0.38025025  0.22427754  0.51608238    -0.38900
O395        O  0.51508753  0.20670555  0.46263184    -0.39600
O396        O  0.52763459  0.23336518  0.52092501    -0.39700
C397        C  0.57625175  0.41894193  0.03392328    -0.12000
C398        C  0.54884072  0.39950692  0.01062644     0.05100
C399        C  0.54917813  0.40481460  0.96728571    -0.07200
C400        C  0.57582993  0.43037119  0.94884022    -0.08000
C401        C  0.60243473  0.45104629  0.97275452    -0.02500
C402        C  0.60282775  0.44449174  0.01554401     0.04300
N403        N  0.62971868  0.46375016  0.04115267     0.66800
H404        H  0.57681860  0.41501025  0.06700351     0.15700
H405        H  0.57514859  0.43465469  0.91589583     0.15400
N406        N  0.52261511  0.38491824  0.94152150     0.74500
O407        O  0.62951212  0.48469639  0.06417027    -0.39000
O408        O  0.64964087  0.45500405  0.04804431    -0.38900
O409        O  0.50376375  0.39422160  0.93075911    -0.39600
O410        O  0.52212393  0.36203209  0.92235554    -0.39700
C411        C  0.49375294  0.34106695  0.22777021    -0.12000
C412        C  0.46513720  0.32467455  0.20553424     0.05100
C413        C  0.43648371  0.30790798  0.22825758    -0.07200
C414        C  0.43699102  0.30793216  0.27205026    -0.08000
C415        C  0.46558128  0.32477730  0.29427390    -0.02500
C416        C  0.49423564  0.34131291  0.27152217     0.04300
N417        N  0.52416224  0.35838185  0.29210555     0.66800
H418        H  0.51602664  0.35403567  0.21117419     0.15700
H419        H  0.41469986  0.29531503  0.28868959     0.15400
N420        N  0.40649085  0.29174473  0.20766080     0.74500
O421        O  0.54011588  0.34493007  0.29845880    -0.39000
O422        O  0.53754657  0.38813611  0.29498451    -0.38900
O423        O  0.39225266  0.26196937  0.20445494    -0.39600
O424        O  0.39142161  0.30611386  0.20128737    -0.39700
C425        C  0.48827770  0.14674852  0.77044650    -0.12000
C426        C  0.46005753  0.13722018  0.79281070     0.05100
C427        C  0.43167513  0.12729776  0.77040108    -0.07200
C428        C  0.43202152  0.12666868  0.72660116    -0.08000
C429        C  0.46013877  0.13521528  0.70437429    -0.02500
C430        C  0.48854516  0.14555727  0.72688753     0.04300
N431        N  0.51788125  0.15423388  0.70628043     0.66800
H432        H  0.51029177  0.15427299  0.78681187     0.15700
H433        H  0.40998779  0.11857892  0.71004067     0.15400
N434        N  0.40217412  0.11716441  0.79138357     0.74500
O435        O  0.53694417  0.18299306  0.69827517    -0.39000
O436        O  0.52746389  0.13456536  0.70432724    -0.38900
O437        O  0.39163635  0.13599358  0.79472791    -0.39600
O438        O  0.38382994  0.08803418  0.79808859    -0.39700
C439        C  0.43195406  0.22743357  0.01033601    -0.12000
C440        C  0.46133523  0.25423143  0.01991681     0.05100
C441        C  0.48945519  0.25443210  0.00838899    -0.07200
C442        C  0.48783718  0.22832846  0.98791026    -0.08000
C443        C  0.45860494  0.20133892  0.97861625    -0.02500
C444        C  0.43037569  0.20093052  0.99029530     0.04300
N445        N  0.39996662  0.17422548  0.98135080     0.66800
H446        H  0.41018305  0.22688867  0.01883822     0.15700
H447        H  0.50979178  0.22926572  0.97932772     0.15400
N448        N  0.52002182  0.28147840  0.01575567     0.74500
O449        O  0.38526718  0.15406031  0.00954177    -0.39000
O450        O  0.38515405  0.17457826  0.94936775    -0.38900
O451        O  0.53694804  0.28090528  0.04502589    -0.39600
O452        O  0.53241521  0.30283531  0.98838107    -0.39700
C453        C  0.59074051  0.13983486  0.52108197    -0.12000
C454        C  0.59074872  0.13625583  0.47759442     0.05100
C455        C  0.56468723  0.13301760  0.45443220    -0.07200
C456        C  0.53876663  0.13191015  0.47515761    -0.08000
C457        C  0.53838193  0.13461356  0.51879664    -0.02500
C458        C  0.56515048  0.13941509  0.54171355     0.04300
N459        N  0.56696861  0.14400858  0.58591130     0.66800
H460        H  0.61076468  0.14306572  0.53932043     0.15700
H461        H  0.51874722  0.12864717  0.45689277     0.15400
N462        N  0.56367576  0.13013692  0.40999244     0.74500
O463        O  0.55929552  0.12071533  0.60968375    -0.39000
O464        O  0.58242742  0.17173745  0.60050265    -0.38900
O465        O  0.54716765  0.10318599  0.39351800    -0.39600
O466        O  0.57267186  0.15457292  0.38799140    -0.39700
C467        C  0.86447456  0.41020066  0.47293504    -0.12000
C468        C  0.85707733  0.40586841  0.51573023     0.05100
C469        C  0.84761897  0.42573474  0.53562186    -0.07200
C470        C  0.84709594  0.45002941  0.51320802    -0.08000
C471        C  0.85574863  0.45520765  0.47086388    -0.02500
C472        C  0.86399037  0.43457173  0.45050205     0.04300
N473        N  0.87350962  0.43886177  0.40766300     0.66800
H474        H  0.87172112  0.39528657  0.45697767     0.15700
H475        H  0.84039110  0.46528758  0.52939200     0.15400
N476        N  0.83853235  0.42179247  0.57861836     0.74500
O477        O  0.90247372  0.45614612  0.39848087    -0.39000
O478        O  0.85456320  0.42033484  0.38047289    -0.38900
O479        O  0.85816876  0.43978421  0.60560271    -0.39600
O480        O  0.80951897  0.40567047  0.58818289    -0.39700
C481        C  0.77267835  0.20757285  0.49019148    -0.12000
C482        C  0.74336702  0.20656644  0.48878086     0.05100
C483        C  0.74043814  0.23089890  0.50856884    -0.07200
C484        C  0.76655758  0.25567089  0.52857635    -0.08000
C485        C  0.79613176  0.25728056  0.52901456    -0.02500
C486        C  0.79905621  0.23276841  0.50979868     0.04300
N487        N  0.82833490  0.23270376  0.51045174     0.66800
H488        H  0.77531596  0.18907088  0.47540162     0.15700
H489        H  0.76373072  0.27415369  0.54309411     0.15400
N490        N  0.71103572  0.23078417  0.50919033     0.74500
O491        O  0.83368493  0.21895821  0.53988214    -0.39000
O492        O  0.84508988  0.23982528  0.47778309    -0.38900
O493        O  0.69351544  0.22074838  0.54114263    -0.39600
O494        O  0.70638418  0.24714998  0.48285212    -0.39700
C495        C  0.54617950  0.14128078  0.02487711    -0.12000
C496        C  0.54242090  0.13447457  0.98197127     0.05100
C497        C  0.56444866  0.12840210  0.96117295    -0.07200
C498        C  0.58922306  0.12874820  0.98345171    -0.08000
C499        C  0.59295563  0.13536035  0.02641455    -0.02500
C500        C  0.57131511  0.14213072  0.04707864     0.04300
N501        N  0.57456843  0.15026347  0.09038377     0.66800
H502        H  0.52974746  0.14633479  0.04123892     0.15700
H503        H  0.60547098  0.12353604  0.96690153     0.15400
N504        N  0.56146336  0.12063917  0.91775595     0.74500
O505        O  0.59028119  0.17901530  0.10104785    -0.39000
O506        O  0.55660010  0.12989360  0.11668720    -0.38900
O507        O  0.58014327  0.14105873  0.89200201    -0.39600
O508        O  0.54579524  0.09197220  0.90671738    -0.39700
C509        C  0.70598977  0.14421056  0.23168263    -0.12000
C510        C  0.68861412  0.15586362  0.21092162     0.05100
C511        C  0.67478052  0.17027185  0.23469237    -0.07200
C512        C  0.67609078  0.17023102  0.27824222    -0.08000
C513        C  0.69088253  0.15593906  0.29918952    -0.02500
C514        C  0.70724597  0.14412309  0.27543293     0.04300
N515        N  0.72401071  0.13062935  0.29494188     0.66800
H516        H  0.71729910  0.13362117  0.21407912     0.15700
H517        H  0.66406419  0.18016171  0.29567050     0.15400
N518        N  0.65828989  0.18413079  0.21536990     0.74500
O519        O  0.71054985  0.10099373  0.29938942    -0.39000
O520        O  0.75373808  0.14714397  0.29888590    -0.38900
O521        O  0.62837096  0.16870407  0.21387005    -0.39600
O522        O  0.67275146  0.21356693  0.20872671    -0.39700
C523        C  0.85536482  0.43759945  0.04270152    -0.12000
C524        C  0.85725259  0.46144996  0.01641879     0.05100
C525        C  0.85828654  0.45779035  0.97280449    -0.07200
C526        C  0.85862688  0.43132698  0.95658926    -0.08000
C527        C  0.85819170  0.40819652  0.98293256    -0.02500
C528        C  0.85591777  0.41120800  0.02644171     0.04300
N529        N  0.85416406  0.38783702  0.05469117     0.66800
H530        H  0.85433272  0.43977631  0.07618752     0.15700
H531        H  0.86011847  0.42940609  0.92312220     0.15400
N532        N  0.85958531  0.48087706  0.94437700     0.74500
O533        O  0.87887631  0.39267703  0.07356987    -0.39000
O534        O  0.82738563  0.36671568  0.06789619    -0.38900
O535        O  0.88590347  0.50091556  0.92868367    -0.39600
O536        O  0.83424527  0.47682437  0.92822029    -0.39700
C537        C  0.84295834  0.33768594  0.77694103    -0.12000
C538        C  0.85969181  0.32530391  0.79764249     0.05100
C539        C  0.87541755  0.31298655  0.77358702    -0.07200
C540        C  0.87502276  0.31425803  0.72989734    -0.08000
C541        C  0.85938476  0.32786339  0.70928040    -0.02500
C542        C  0.84266285  0.33908585  0.73336142     0.04300
N543        N  0.82539198  0.35222639  0.71433148     0.66800
H544        H  0.83044232  0.34696729  0.79461918     0.15700
H545        H  0.88791065  0.30543582  0.71213844     0.15400
N546        N  0.89299960  0.30026781  0.79276709     0.74500
O547        O  0.79616211  0.33457140  0.70721975    -0.39000
O548        O  0.83725882  0.38189572  0.71357554    -0.38900
O549        O  0.88126300  0.27063747  0.79427684    -0.39600
O550        O  0.92223355  0.31815822  0.79962767    -0.39700
C551        C  0.76827179  0.25800764  0.98731819    -0.12000
C552        C  0.79695009  0.25805418  0.98253215     0.05100
C553        C  0.79942055  0.23264760  0.99915013    -0.07200
C554        C  0.77325212  0.20772242  0.01951953    -0.08000
C555        C  0.74470432  0.20798529  0.02463139    -0.02500
C556        C  0.74250966  0.23367239  0.00841615     0.04300
N557        N  0.71436016  0.23566809  0.01305798     0.66800
H558        H  0.76587045  0.27735909  0.97531626     0.15700
H559        H  0.77547163  0.18836472  0.03187335     0.15400
N560        N  0.82814815  0.23165511  0.99571075     0.74500
O561        O  0.71217720  0.25127871  0.04312070    -0.39000
O562        O  0.69525661  0.22791954  0.98295954    -0.38900
O563        O  0.84699754  0.24050405  0.02620875    -0.39600
O564        O  0.83115932  0.21577680  0.96669724    -0.39700
C565        C  0.58955184  0.57008092  0.92444172    -0.12000
C566        C  0.62280185  0.58744905  0.92683543     0.05100
C567        C  0.63803654  0.62079396  0.92997320    -0.07200
C568        C  0.61995354  0.63593843  0.92970542    -0.08000
C569        C  0.58669693  0.61846505  0.92640151    -0.02500
C570        C  0.57152992  0.58507193  0.92431762     0.04300
N571        N  0.53775884  0.56575899  0.92234471     0.66800
H572        H  0.57723131  0.54452379  0.92249579     0.15700
H573        H  0.63206835  0.66148769  0.93147538     0.15400
N574        N  0.67177587  0.63975851  0.93272051     0.74500
O575        O  0.52192816  0.55640457  0.95576753    -0.39000
O576        O  0.52480834  0.55275124  0.88826119    -0.38900
O577        O  0.68780810  0.65220825  0.90010895    -0.39600
O578        O  0.68453436  0.64942858  0.96796244    -0.39700
C579        C  0.60776448  0.01913965  0.10960874    -0.12000
C580        C  0.63130532  0.03689459  0.07989948     0.05100
C581        C  0.63897792  0.02054979  0.04961592    -0.07200
C582        C  0.62274224  0.98719120  0.04938933    -0.08000
C583        C  0.59851555  0.96969761  0.07846753    -0.02500
C584        C  0.59142654  0.98610987  0.10909143     0.04300
N585        N  0.56795571  0.96964186  0.14056132     0.66800
H586        H  0.60157869  0.03088714  0.13343304     0.15700
H587        H  0.62843840  0.97499111  0.02566755     0.15400
N588        N  0.66245511  0.03717960  0.01825975     0.74500
O589        O  0.57607822  0.96314735  0.17476009    -0.39000
O590        O  0.54115566  0.96757280  0.13764134    -0.38900
O591        O  0.68994331  0.04116490  0.02274707    -0.39600
O592        O  0.65384799  0.04087598  0.98266493    -0.39700
C593        C  0.55928599  0.77459013  0.95412855    -0.12000
C594        C  0.55524898  0.74892750  0.97838215     0.05100
C595        C  0.55493947  0.75131119  0.02223634    -0.07200
C596        C  0.55670779  0.77818098  0.04084737    -0.08000
C597        C  0.55932768  0.80330351  0.01660977    -0.02500
C598        C  0.56173678  0.80180039  0.97279961     0.04300
N599        N  0.56488259  0.82680325  0.94657785     0.66800
H600        H  0.55991929  0.77328756  0.92047214     0.15700
H601        H  0.55496210  0.77888800  0.07444495     0.15400
N602        N  0.55033373  0.72568687  0.04832644     0.74500
O603        O  0.59204782  0.84726101  0.93363837    -0.39000
O604        O  0.54057353  0.82450734  0.92937515    -0.38900
O605        O  0.57348911  0.72768699  0.06838349    -0.39600
O606        O  0.52251376  0.70437365  0.05763141    -0.39700
C607        C  0.59212418  0.57690962  0.59637637    -0.12000
C608        C  0.62051736  0.58952271  0.57340286     0.05100
C609        C  0.63109486  0.61839735  0.55206310    -0.07200
C610        C  0.61290332  0.63347401  0.55330564    -0.08000
C611        C  0.58416521  0.62041592  0.57573305    -0.02500
C612        C  0.57408983  0.59190068  0.59783204     0.04300
N613        N  0.54551312  0.57755763  0.62200255     0.66800
H614        H  0.58360795  0.55504390  0.61342796     0.15700
H615        H  0.62122050  0.65533985  0.53635209     0.15400
N616        N  0.65980238  0.63246886  0.52826013     0.74500
O617        O  0.52036645  0.55550880  0.60623811    -0.39000
O618        O  0.54696380  0.58207697  0.66093750    -0.38900
O619        O  0.65852894  0.62832293  0.48926034    -0.39600
O620        O  0.68503201  0.65405350  0.54445992    -0.39700
C621        C  0.50713109  0.67066867  0.72649890    -0.12000
C622        C  0.53569710  0.68172979  0.70440749     0.05100
C623        C  0.56423940  0.69330326  0.72698739    -0.07200
C624        C  0.56343626  0.69217523  0.77073509    -0.08000
C625        C  0.53455913  0.67936362  0.79275839    -0.02500
C626        C  0.50625351  0.66924664  0.77007282     0.04300
N627        N  0.47608853  0.65599591  0.79037344     0.66800
H628        H  0.48501967  0.66192027  0.70986419     0.15700
H629        H  0.58542746  0.70018732  0.78736737     0.15400
N630        N  0.59396709  0.70425679  0.70620234     0.74500
O631        O  0.46409876  0.67327732  0.79719213    -0.39000
O632        O  0.45860741  0.62628411  0.79205026    -0.38900
O633        O  0.61322229  0.73361340  0.70355995    -0.39600
O634        O  0.60345691  0.68500234  0.69837311    -0.39700
C635        C  0.61786159  0.98594361  0.44984655    -0.12000
C636        C  0.59382559  0.96985675  0.42008809     0.05100
C637        C  0.58730736  0.98785459  0.39159033    -0.07200
C638        C  0.60388311  0.02085396  0.39406331    -0.08000
C639        C  0.62741969  0.03706765  0.42426548    -0.02500
C640        C  0.63465074  0.01924488  0.45214620     0.04300
N641        N  0.65863000  0.03434921  0.48319555     0.66800
H642        H  0.62333877  0.97267433  0.47185107     0.15700
H643        H  0.59811168  0.03381466  0.37190020     0.15400
N644        N  0.56426375  0.97319922  0.35927062     0.74500
O645        O  0.65075932  0.03712940  0.51987278    -0.39000
O646        O  0.68590574  0.03821910  0.47653254    -0.38900
O647        O  0.53785371  0.97198582  0.36265250    -0.39600
O648        O  0.57285437  0.96830959  0.32412532    -0.39700
C649        C  0.57429033  0.87632955  0.27062588    -0.12000
C650        C  0.54502454  0.85788932  0.29096139     0.05100
C651        C  0.51774702  0.83921540  0.26665406    -0.07200
C652        C  0.51985759  0.84043967  0.22310710    -0.08000
C653        C  0.54873116  0.86017269  0.20265432    -0.02500
C654        C  0.57635609  0.87780414  0.22691403     0.04300
N655        N  0.60635174  0.89869821  0.20803780     0.66800
H656        H  0.59545092  0.89091855  0.28863498     0.15700
H657        H  0.49847025  0.82634487  0.20527177     0.15400
N658        N  0.48752631  0.81908733  0.28549274     0.74500
O659        O  0.61390351  0.92705306  0.20105950    -0.39000
O660        O  0.62756835  0.89108587  0.20728349    -0.38900
O661        O  0.46692026  0.82752694  0.28590146    -0.39600
O662        O  0.47917363  0.79057848  0.29284666    -0.39700
C663        C  0.56905913  0.76927756  0.50488683    -0.12000
C664        C  0.53924039  0.74469887  0.51825030     0.05100
C665        C  0.51214489  0.74738437  0.51062123    -0.07200
C666        C  0.51513372  0.77367135  0.48943793    -0.08000
C667        C  0.54478793  0.79825588  0.47611743    -0.02500
C668        C  0.57208813  0.79618722  0.48458228     0.04300
N669        N  0.60290166  0.82077534  0.47228012     0.66800
H670        H  0.59012864  0.76783013  0.51068646     0.15700
H671        H  0.49392415  0.77492114  0.48375653     0.15400
N672        N  0.48115052  0.72343788  0.52347940     0.74500
O673        O  0.61967518  0.84233961  0.49803357    -0.39000
O674        O  0.61575969  0.81712113  0.44007598    -0.38900
O675        O  0.46885055  0.72799223  0.55560574    -0.39600
O676        O  0.46370403  0.70191451  0.49806614    -0.39700
C677        C  0.41157868  0.42652840  0.08657991    -0.12000
C678        C  0.38065485  0.41133358  0.07050841     0.05100
C679        C  0.36801966  0.38052309  0.05378201    -0.07200
C680        C  0.38627743  0.36556029  0.05388590    -0.08000
C681        C  0.41719071  0.38080861  0.07031252    -0.02500
C682        C  0.42979526  0.41178696  0.08662538     0.04300
N683        N  0.46100940  0.42878788  0.10383219     0.66800
H684        H  0.42186575  0.45012488  0.09955577     0.15700
H685        H  0.37616743  0.34192874  0.04111960     0.15400
N686        N  0.33696149  0.36418977  0.03611163     0.74500
O687        O  0.48380392  0.44784298  0.08104981    -0.39000
O688        O  0.46441481  0.43023500  0.14294272    -0.38900
O689        O  0.33374451  0.36490058  0.99715081    -0.39600
O690        O  0.31396250  0.34420991  0.05782250    -0.39700
C691        C  0.42147144  0.56899809  0.04002533    -0.12000
C692        C  0.39901334  0.54395522  0.01536001     0.05100
C693        C  0.40231617  0.54637824  0.97147302    -0.07200
C694        C  0.42821795  0.57293889  0.95344496    -0.08000
C695        C  0.45154073  0.59717698  0.97825947    -0.02500
C696        C  0.44766458  0.59522298  0.02205142     0.04300
N697        N  0.47044348  0.61914998  0.04900399     0.66800
H698        H  0.41946266  0.56775977  0.07366471     0.15700
H699        H  0.43063939  0.57392625  0.91984819     0.15400
N700        N  0.38016630  0.52187610  0.94459065     0.74500
O701        O  0.49261901  0.61594401  0.06381113    -0.39000
O702        O  0.46447815  0.63929218  0.06492113    -0.38900
O703        O  0.35978102  0.52578219  0.92556404    -0.39600
O704        O  0.38583050  0.50059422  0.93231934    -0.39700
C705        C  0.98207555  0.36622060  0.94873325    -0.12000
C706        C  0.96719398  0.38288014  0.93509530     0.05100
C707        C  0.98626593  0.41473536  0.92254015    -0.07200
C708        C  0.01921538  0.42901823  0.92344582    -0.08000
C709        C  0.03424122  0.41235169  0.93620671    -0.02500
C710        C  0.01531450  0.38057632  0.94917970     0.04300
N711        N  0.02921223  0.36233782  0.96229286     0.66800
H712        H  0.96792253  0.34180511  0.95837934     0.15700
H713        H  0.03306648  0.45338437  0.91343665     0.15400
N714        N  0.97277354  0.43311502  0.90833735     0.74500
O715        O  0.03332119  0.36017823  0.00071575    -0.39000
O716        O  0.03036410  0.34298171  0.93710648    -0.38900
O717        O  0.97106633  0.45242858  0.93302992    -0.39600
O718        O  0.96955524  0.43535783  0.86966534    -0.39700
C719        C  0.19871586  0.44338530  0.02646302    -0.12000
C720        C  0.19874657  0.44483035  0.98274209     0.05100
C721        C  0.22358420  0.44470620  0.96004392    -0.07200
C722        C  0.24826101  0.44411126  0.98131123    -0.08000
C723        C  0.24925601  0.44473724  0.02503687    -0.02500
C724        C  0.22398813  0.44393796  0.04775073     0.04300
N725        N  0.22379513  0.44417552  0.09234964     0.66800
H726        H  0.17989291  0.44356009  0.04428850     0.15700
H727        H  0.26752341  0.44479816  0.96351729     0.15400
N728        N  0.22445340  0.44567159  0.91547117     0.74500
O729        O  0.23371956  0.47010347  0.11147027    -0.39000
O730        O  0.20729002  0.41853359  0.11174924    -0.38900
O731        O  0.24284013  0.47141507  0.89729863    -0.39600
O732        O  0.21302325  0.42007191  0.89518183    -0.39700
C733        C  0.37264569  0.35306425  0.41528588    -0.12000
C734        C  0.39849148  0.36277695  0.44244885     0.05100
C735        C  0.40620724  0.38832379  0.46997458    -0.07200
C736        C  0.38960654  0.40480139  0.46784950    -0.08000
C737        C  0.36497922  0.39623179  0.43903369    -0.02500
C738        C  0.35585980  0.36942671  0.41342659     0.04300
N739        N  0.33122611  0.35981988  0.38320091     0.66800
H740        H  0.36623198  0.33350247  0.39405706     0.15700
H741        H  0.39667399  0.42500418  0.48813844     0.15400
N742        N  0.43192900  0.39908431  0.49873135     0.74500
O743        O  0.33803458  0.37143422  0.34697337    -0.39000
O744        O  0.30466850  0.33537260  0.38975103    -0.38900
O745        O  0.45837544  0.42294298  0.48974836    -0.39600
O746        O  0.42643038  0.38907994  0.53580119    -0.39700
C747        C  0.45437132  0.58721654  0.47481328    -0.12000
C748        C  0.45102570  0.59366280  0.51670221     0.05100
C749        C  0.42167449  0.57442127  0.53702423    -0.07200
C750        C  0.39698445  0.54883591  0.51577686    -0.08000
C751        C  0.40078975  0.54166011  0.47437245    -0.02500
C752        C  0.42975664  0.56156025  0.45365464     0.04300
N753        N  0.43509384  0.55570420  0.41149952     0.66800
H754        H  0.47649252  0.60172628  0.45847207     0.15700
H755        H  0.37501010  0.53404580  0.53227639     0.15400
N756        N  0.41663509  0.57983103  0.57952849     0.74500
O757        O  0.43073797  0.57033548  0.38229424    -0.39000
O758        O  0.45044373  0.54166156  0.40437066    -0.38900
O759        O  0.40115478  0.59360220  0.58758586    -0.39600
O760        O  0.42142730  0.56506922  0.60814493    -0.39700
C761        C  0.30548659  0.43359206  0.27255582    -0.12000
C762        C  0.32377688  0.46213000  0.29431692     0.02700
C763        C  0.34093104  0.49046706  0.27140220    -0.07200
C764        C  0.34034605  0.48956371  0.22769935    -0.08000
C765        C  0.32294669  0.46082322  0.20591778    -0.02500
C766        C  0.30487947  0.43268885  0.22890501     0.04300
N767        N  0.28592652  0.40286927  0.20866615     0.66800
H768        H  0.29186347  0.41164870  0.28943353     0.15700
H769        H  0.35428292  0.51144868  0.21082312     0.15400
N770        N  0.36001250  0.52023715  0.29174840     0.74500
O771        O  0.29698939  0.38461637  0.20341860    -0.39000
O772        O  0.25648075  0.39205263  0.20488604    -0.38900
O773        O  0.38939090  0.53083740  0.29596540    -0.39600
O774        O  0.34897808  0.53844973  0.29765414    -0.39700
C775        C  0.01770679  0.38020006  0.56806539    -0.12000
C776        C  0.03495338  0.41348286  0.56997941     0.05100
C777        C  0.01811746  0.43007469  0.56847437    -0.07200
C778        C  0.98498289  0.41346479  0.56793822    -0.08000
C779        C  0.96759959  0.38024355  0.56804963    -0.02500
C780        C  0.98432857  0.36352770  0.56663461     0.04300
N781        N  0.96799956  0.32975042  0.56434527     0.66800
H782        H  0.03008172  0.36700761  0.56825815     0.15700
H783        H  0.97281682  0.42687271  0.56783014     0.15400
N784        N  0.03412737  0.46389321  0.56748176     0.74500
O785        O  0.96305517  0.31647090  0.52909920    -0.39000
O786        O  0.96510023  0.31395402  0.59678066    -0.38900
O787        O  0.03852791  0.47778476  0.53290140    -0.39600
O788        O  0.03740425  0.47906741  0.60084470    -0.39700
C789        C  0.13074335  0.43333887  0.73408919    -0.12000
C790        C  0.14139983  0.46214381  0.71309534     0.05100
C791        C  0.15283903  0.49027477  0.73667213    -0.07200
C792        C  0.15278305  0.48904075  0.78021760    -0.08000
C793        C  0.14128911  0.46017146  0.80134131    -0.02500
C794        C  0.13065792  0.43211539  0.77778690     0.04300
N795        N  0.11970617  0.40218508  0.79747893     0.66800
H796        H  0.12219698  0.41158857  0.71657770     0.15700
H797        H  0.16090602  0.51082234  0.79751798     0.15400
N798        N  0.16301044  0.52014955  0.71718924     0.74500
O799        O  0.09028060  0.38361463  0.80197716    -0.39000
O800        O  0.13849535  0.39165779  0.80146471    -0.38900
O801        O  0.14383866  0.53029369  0.71416932    -0.39600
O802        O  0.19224957  0.53892758  0.71139380    -0.39700
C803        C  0.24515960  0.43791394  0.52522043    -0.12000
C804        C  0.24684080  0.44125476  0.48159286     0.05100
C805        C  0.22215932  0.44265759  0.46065008    -0.07200
C806        C  0.19727886  0.44207685  0.48347697    -0.08000
C807        C  0.19681071  0.44107044  0.52725713    -0.02500
C808        C  0.22068885  0.43821104  0.54816000     0.04300
N809        N  0.22074043  0.43594486  0.59260269     0.66800
H810        H  0.26369077  0.43655745  0.54184342     0.15700
H811        H  0.17915395  0.44415513  0.46685895     0.15400
N812        N  0.22226833  0.44544837  0.41628121     0.74500
O813        O  0.21001121  0.40909727  0.60926023    -0.39000
O814        O  0.23781494  0.46050897  0.61389499    -0.38900
O815        O  0.20581688  0.42101947  0.39445971    -0.39600
O816        O  0.23254729  0.47242109  0.40019852    -0.39700
C817        C  0.02117633  0.59674485  0.05855099    -0.12000
C818        C  0.03799402  0.62873247  0.07034947     0.05100
C819        C  0.02112062  0.64491256  0.07726844    -0.07200
C820        C  0.98786880  0.62849069  0.07385629    -0.08000
C821        C  0.97109253  0.59606282  0.06384894    -0.02500
C822        C  0.98823114  0.58043065  0.05517777     0.04300
N823        N  0.97266895  0.54792800  0.04264233     0.66800
H824        H  0.03361338  0.58402231  0.05218841     0.15700
H825        H  0.97512257  0.64082658  0.08066354     0.15400
N826        N  0.03701077  0.67741217  0.08975551     0.74500
O827        O  0.96882665  0.54112098  0.00428228    -0.39000
O828        O  0.96945201  0.52713253  0.06856520    -0.38900
O829        O  0.04177154  0.69840667  0.06327731    -0.39600
O830        O  0.03984872  0.68427855  0.12810449    -0.39700
C831        C  0.15266412  0.59691895  0.99084655    -0.12000
C832        C  0.14697240  0.59532641  0.03403595     0.05100
C833        C  0.14289983  0.56848898  0.05602885    -0.07200
C834        C  0.14324171  0.54357393  0.03442157    -0.08000
C835        C  0.14762449  0.54462660  0.99091728    -0.02500
C836        C  0.15302687  0.57206613  0.96927087     0.04300
N837        N  0.15790879  0.57486641  0.92513704     0.66800
H838        H  0.15611791  0.61728312  0.97331934     0.15700
H839        H  0.13924301  0.52295198  0.05178103     0.15400
N840        N  0.13736958  0.56551081  0.10004818     0.74500
O841        O  0.13456082  0.56718356  0.90137952    -0.39000
O842        O  0.18569517  0.59142190  0.91091199    -0.38900
O843        O  0.10932271  0.54951820  0.11364718    -0.39600
O844        O  0.16026324  0.57260352  0.12440655    -0.39700
C845        C  0.41188940  0.97993053  0.92189198    -0.12000
C846        C  0.37914455  0.96336848  0.93010594     0.05100
C847        C  0.36370146  0.98080884  0.93825740    -0.07200
C848        C  0.38111669  0.01410022  0.93759716    -0.08000
C849        C  0.41380602  0.03046236  0.92876784    -0.02500
C850        C  0.42920390  0.01291254  0.92126401     0.04300
N851        N  0.46266576  0.02805137  0.91406607     0.66800
H852        H  0.42445358  0.96727259  0.91600732     0.15700
H853        H  0.36892482  0.02712498  0.94340636     0.15400
N854        N  0.33046351  0.96531975  0.94689403     0.74500
O855        O  0.47297254  0.03133295  0.87713500    -0.39000
O856        O  0.48077700  0.03120314  0.94398101    -0.38900
O857        O  0.32110098  0.96189396  0.98430151    -0.39600
O858        O  0.31151301  0.96194219  0.91799185    -0.39700
C859        C  0.40889745  0.84985813  0.02220860    -0.12000
C860        C  0.40929594  0.85455343  0.97893970     0.05100
C861        C  0.43583054  0.85884115  0.95554365    -0.07200
C862        C  0.46169035  0.85975783  0.97581784    -0.08000
C863        C  0.46184779  0.85636693  0.01931861    -0.02500
C864        C  0.43469736  0.85063817  0.04246763     0.04300
N865        N  0.43324300  0.84679891  0.08675308     0.66800
H866        H  0.38875137  0.84630693  0.04072186     0.15700
H867        H  0.48205449  0.86386409  0.95737503     0.15400
N868        N  0.43774268  0.86382244  0.91147344     0.74500
O869        O  0.44279612  0.87080865  0.10999111    -0.39000
O870        O  0.41636086  0.81955298  0.10212310    -0.38900
O871        O  0.45371952  0.89162377  0.89742946    -0.39600
O872        O  0.42993694  0.84065019  0.88719454    -0.39700
C873        C  0.23229318  0.76840557  0.05479244    -0.12000
C874        C  0.20475959  0.74822184  0.03205447     0.05100
C875        C  0.20342484  0.75467522  0.98940162    -0.07200
C876        C  0.22974460  0.77994330  0.97010235    -0.08000
C877        C  0.25752235  0.79944462  0.99252853    -0.02500
C878        C  0.25850576  0.79391557  0.03550445     0.04300
N879        N  0.28667171  0.81241825  0.05933577     0.66800
H880        H  0.23386482  0.76392391  0.08744636     0.15700
H881        H  0.22864894  0.78396003  0.93715155     0.15400
N882        N  0.17621573  0.73498434  0.96454144     0.74500
O883        O  0.28849691  0.83396905  0.08307027    -0.39000
O884        O  0.30629748  0.80292785  0.06344181    -0.38900
O885        O  0.15769118  0.74483078  0.95435792    -0.39600
O886        O  0.17458174  0.71145052  0.94570420    -0.39700
C887        C  0.01665717  0.58986238  0.45046544    -0.12000
C888        C  0.03429935  0.62268875  0.44395438     0.05100
C889        C  0.01784166  0.63921255  0.43661514    -0.07200
C890        C  0.98450816  0.62253419  0.43433803    -0.08000
C891        C  0.96713904  0.58944851  0.43862680    -0.02500
C892        C  0.98359616  0.57322706  0.44766869     0.04300
N893        N  0.96722303  0.53969692  0.45369066     0.66800
H894        H  0.02858679  0.57668643  0.45669442     0.15700
H895        H  0.97233178  0.63535376  0.42740202     0.15400
N896        N  0.03445572  0.67254539  0.42917456     0.74500
O897        O  0.96505469  0.52187383  0.42369281    -0.39000
O898        O  0.96141203  0.52874054  0.49029003    -0.38900
O899        O  0.03968095  0.68255166  0.39209740    -0.39600
O900        O  0.03725432  0.69117269  0.45841978    -0.39700
C901        C  0.15372929  0.59654244  0.53014662    -0.12000
C902        C  0.15058711  0.59604029  0.48654375     0.05100
C903        C  0.15087546  0.57139306  0.46357814    -0.07200
C904        C  0.15247466  0.54713643  0.48453030    -0.08000
C905        C  0.15345887  0.54654694  0.52830373    -0.02500
C906        C  0.15505968  0.57214722  0.55111004     0.04300
N907        N  0.15641846  0.57310095  0.59566966     0.66800
H908        H  0.15396745  0.61534772  0.54838530     0.15700
H909        H  0.15145605  0.52792296  0.46638036     0.15400
N910        N  0.14818084  0.56970605  0.41913473     0.74500
O911        O  0.18300272  0.58782874  0.61355359    -0.39000
O912        O  0.13142213  0.56487332  0.61650450    -0.38900
O913        O  0.17254787  0.57743037  0.39713742    -0.39600
O914        O  0.12108853  0.55404136  0.40276210    -0.39700
C915        C  0.12146081  0.68087674  0.28434985    -0.12000
C916        C  0.14143615  0.67236934  0.30492004     0.05100
C917        C  0.16183006  0.66571381  0.28101956    -0.07200
C918        C  0.16130158  0.66694449  0.23743157    -0.08000
C919        C  0.14060567  0.67453249  0.21680646    -0.02500
C920        C  0.12072249  0.68185619  0.24083388     0.04300
N921        N  0.09868678  0.68914363  0.22185599     0.66800
H922        H  0.10558716  0.68600237  0.30201671     0.15700
H923        H  0.17682507  0.66137117  0.21970958     0.15400
N924        N  0.18300176  0.65734805  0.30024607     0.74500
O925        O  0.07016914  0.66749814  0.21758167    -0.39000
O926        O  0.10562495  0.71768705  0.21909517    -0.38900
O927        O  0.17499528  0.62852838  0.30346739    -0.39600
O928        O  0.21160270  0.67835608  0.30585634    -0.39700
C929        C  0.35452306  0.97350341  0.57924919    -0.12000
C930        C  0.37108257  0.95849449  0.56533557     0.05100
C931        C  0.40116872  0.97683202  0.54668764    -0.07200
C932        C  0.41523760  0.00970381  0.54544256    -0.08000
C933        C  0.39993808  0.02514980  0.56233387    -0.02500
C934        C  0.36866333  0.00665175  0.57781547     0.04300
N935        N  0.35141248  0.02098375  0.59377750     0.66800
H936        H  0.33116696  0.95965757  0.59290318     0.15700
H937        H  0.43873538  0.02322377  0.53204573     0.15400
N938        N  0.41780591  0.96247352  0.52860722     0.74500
O939        O  0.33186789  0.02325961  0.57045352    -0.39000
O940        O  0.35017777  0.02437619  0.63268210    -0.38900
O941        O  0.41440086  0.95552656  0.49027777    -0.39600
O942        O  0.44051171  0.96309944  0.54820155    -0.39700
C943        C  0.43680057  0.86034763  0.45852977    -0.12000
C944        C  0.46140030  0.86098626  0.48192178     0.05100
C945        C  0.45828826  0.85835370  0.52578183    -0.07200
C946        C  0.43127303  0.85579826  0.54524454    -0.08000
C947        C  0.40698050  0.85586566  0.52190228    -0.02500
C948        C  0.40992023  0.85804494  0.47795930     0.04300
N949        N  0.38663098  0.85939095  0.45250711     0.66800
H950        H  0.43873793  0.86249866  0.42493458     0.15700
H951        H  0.42952362  0.85407755  0.57887925     0.15400
N952        N  0.48206205  0.85786886  0.55115424     0.74500
O953        O  0.38999811  0.88598906  0.44314292    -0.39000
O954        O  0.36709320  0.83510717  0.43242342    -0.38900
O955        O  0.50080552  0.88226795  0.57168125    -0.39600
O956        O  0.47981437  0.83166439  0.56003585    -0.39700
C957        C  0.30650203  0.86126588  0.73323265    -0.12000
C958        C  0.32409447  0.84972448  0.71232977     0.05100
C959        C  0.33811113  0.83566461  0.73603670    -0.07200
C960        C  0.33631337  0.83557602  0.77969246    -0.08000
C961        C  0.32054004  0.84907457  0.80069419    -0.02500
C962        C  0.30438716  0.86082446  0.77688017     0.04300
N963        N  0.28587998  0.87261082  0.79627747     0.66800
H964        H  0.29469573  0.87121416  0.71570777     0.15700
H965        H  0.34845557  0.82596579  0.79717535     0.15400
N966        N  0.35543085  0.82253903  0.71664653     0.74500
O967        O  0.29743052  0.90210700  0.80024267    -0.39000
O968        O  0.25633210  0.85446649  0.80030129    -0.38900
O969        O  0.38520642  0.83924761  0.71335064    -0.39600
O970        O  0.34224003  0.79294064  0.71174868    -0.39700
C971        C  0.25061622  0.79510487  0.48622072    -0.12000
C972        C  0.25205029  0.79521885  0.52991751     0.05100
C973        C  0.22649781  0.77116161  0.55258703    -0.07200
C974        C  0.20067204  0.74689801  0.53127855    -0.08000
C975        C  0.20016660  0.74566724  0.48748748    -0.02500
C976        C  0.22519705  0.77044951  0.46487420     0.04300
N977        N  0.22553312  0.77081553  0.42027948     0.66800
H978        H  0.26995207  0.81350079  0.46842363     0.15700
H979        H  0.18166980  0.72820607  0.54913819     0.15400
N980        N  0.22637964  0.77086485  0.59717977     0.74500
O981        O  0.21541324  0.78656364  0.40130995    -0.39000
O982        O  0.24234375  0.76197195  0.40081213    -0.38900
O983        O  0.21059729  0.78084573  0.61682331    -0.39600
O984        O  0.23563515  0.75435170  0.61606813    -0.39700
loop_ 
_geom_bond_atom_site_label_1 
_geom_bond_atom_site_label_2 
_geom_bond_distance 
_geom_bond_site_symmetry_2 
_ccdc_geom_bond_type 
In1           O3   2.238       .  S
In1           O4   2.254       .  S
In1          O12   2.249       .  S
In1           O6   2.238       .  S
In1           O8   2.265       .  S
In1           O9   2.245       .  S
In1          O10   2.229       .  S
In1          O13   2.247       .  S
C2            O8   1.261       .  A
C2           O10   1.257       .  A
C2          C930   1.476       .  S
O3           C11   1.262       .  A
O4           C11   1.262       .  A
C5           O12   1.259       .  A
C5            O6   1.259       .  A
C5          C972   1.473       .  S
C7            O9   1.262       .  A
C7           O13   1.260       .  A
C7          C947   1.483       .  S
C11         C958   1.485       .  S
In14         O16   2.222       .  S
In14         O17   2.243       .  S
In14         O25   2.243       .  S
In14         O19   2.245       .  S
In14         O21   2.278       .  S
In14         O22   2.249       .  S
In14         O23   2.231       .  S
In14         O26   2.241       .  S
C15          O21   1.261       .  A
C15          O23   1.258       .  A
C15         C888   1.486       .  S
O16          C24   1.261       .  A
O17          C24   1.261       .  A
C18          O25   1.258       .  A
C18          O19   1.261       .  A
C18         C975   1.477       .  S
C20          O22   1.261       .  A
C20          O26   1.262       .  A
C20         C902   1.484       .  S
C24         C916   1.477       .  S
In27         O29   2.243       .  S
In27         O30   2.261       .  S
In27         O38   2.240       .  S
In27         O32   2.264       .  S
In27         O34   2.286       .  S
In27         O35   2.233       .  S
In27         O36   2.212       .  S
In27         O39   2.254       .  S
C28          O34   1.263       .  A
C28          O36   1.257       .  A
C28         C846   1.484       .  S
O29          C37   1.260       .  A
O30          C37   1.260       .  A
C31          O38   1.259       .  A
C31          O32   1.260       .  A
C31         C877   1.477       .  S
C33          O35   1.263       .  A
C33          O39   1.264       .  A
C33         C961   1.485       .  S
C37         C860   1.484       .  S
In40         O42   2.244       .  S
In40         O43   2.264       .  S
In40         O51   2.247       .  S
In40         O45   2.255       .  S
In40         O47   2.275       .  S
In40         O48   2.233       .  S
In40         O49   2.214       .  S
In40         O52   2.246       .  S
C41          O47   1.262       .  A
C41          O49   1.258       .  A
C41         C818   1.480       .  S
O42          C50   1.262       .  A
O43          C50   1.261       .  A
C44          O51   1.259       .  A
C44          O45   1.260       .  A
C44         C874   1.484       .  S
C46          O48   1.261       .  A
C46          O52   1.260       .  A
C46         C919   1.480       .  S
C50         C832   1.488       .  S
In53         O55   2.242       .  S
In53         O56   2.233       .  S
In53         O64   2.263       .  S
In53         O58   2.249       .  S
In53         O60   2.274       .  S
In53         O61   2.248       .  S
In53         O62   2.235       .  S
In53         O65   2.240       .  S
C54          O60   1.263       .  A
C54          O62   1.256       .  A
C54         C776   1.487       .  S
O55          C63   1.263       .  A
O56          C63   1.261       .  A
C57          O64   1.259       .  A
C57          O58   1.260       .  A
C57         C807   1.482       .  S
C59          O61   1.260       .  A
C59          O65   1.261       .  A
C59         C905   1.482       .  S
C63         C790   1.480       .  S
In66         O68   2.233       .  S
In66         O69   2.253       .  S
In66         O77   2.255       .  S
In66         O71   2.256       .  S
In66         O73   2.273       .  S
In66         O74   2.248       .  S
In66         O75   2.243       .  S
In66         O78   2.241       .  S
C67          O73   1.259       .  A
C67          O75   1.256       .  A
C67         C737   1.482       .  S
O68          C76   1.261       .  A
O69          C76   1.261       .  A
C70          O77   1.259       .  A
C70          O71   1.260       .  A
C70         C804   1.483       .  S
C72          O74   1.262       .  A
C72          O78   1.262       .  A
C72         C751   1.485       .  S
C76         C762   1.482       .  S
In79         O81   2.253       .  S
In79         O82   2.258       .  S
In79         O90   2.242       .  S
In79         O84   2.244       .  S
In79         O86   2.277       .  S
In79         O87   2.222       .  S
In79         O88   2.208       .  S
In79         O91   2.254       .  S
C80          O86   1.263       .  A
C80          O88   1.258       .  A
C80         C709   1.482       .  S
O81          C89   1.261       .  A
O82          C89   1.260       .  A
C83          O90   1.258       .  A
C83          O84   1.261       .  A
C83         C720   1.474       .  S
C85          O87   1.262       .  A
C85          O91   1.263       .  A
C85         C793   1.481       .  S
C89         C835   1.489       .  S
In92         O94   2.260       .  S
In92         O95   2.240       .  S
In92        O103   2.242       .  S
In92         O97   2.240       .  S
In92         O99   2.273       .  S
In92        O100   2.232       .  S
In92        O101   2.218       .  S
In92        O104   2.249       .  S
C93          O99   1.263       .  A
C93         O101   1.258       .  A
C93         C678   1.484       .  S
O94         C102   1.260       .  A
O95         C102   1.260       .  A
C96         O103   1.258       .  A
C96          O97   1.261       .  A
C96         C723   1.472       .  S
C98         O100   1.262       .  A
C98         O104   1.263       .  A
C98         C765   1.483       .  S
C102        C692   1.484       .  S
In105       O107   2.250       .  S
In105       O108   2.240       .  S
In105       O116   2.214       .  S
In105       O110   2.284       .  S
In105       O112   2.271       .  S
In105       O113   2.234       .  S
In105       O114   2.227       .  S
In105       O117   2.254       .  S
C106        O112   1.266       .  A
C106        O114   1.258       .  A
C106        C636   1.487       .  S
O107        C115   1.262       .  A
O108        C115   1.260       .  A
C109        O116   1.258       .  A
C109        O110   1.265       .  A
C109        C667   1.483       .  S
C111        O113   1.262       .  A
C111        O117   1.262       .  A
C111        C944   1.483       .  S
C115        C650   1.483       .  S
In118       O120   2.259       .  S
In118       O121   2.225       .  S
In118       O129   2.239       .  S
In118       O123   2.271       .  S
In118       O125   2.270       .  S
In118       O126   2.247       .  S
In118       O127   2.233       .  S
In118       O130   2.240       .  S
C119        O125   1.265       .  A
C119        O127   1.259       .  A
C119        C611   1.490       .  S
O120        C128   1.261       .  A
O121        C128   1.260       .  A
C122        O129   1.258       .  A
C122        O123   1.263       .  A
C122        C664   1.487       .  S
C124        O126   1.261       .  A
C124        O130   1.263       .  A
C124        C748   1.484       .  S
C128        C622   1.481       .  S
In131       O133   2.245       .  S
In131       O134   2.257       .  S
In131       O142   2.240       .  S
In131       O136   2.274       .  S
In131       O138   2.275       .  S
In131       O139   2.221       .  S
In131       O140   2.224       .  S
In131       O143   2.258       .  S
C132        O138   1.264       .  A
C132        O140   1.258       .  A
C132        C583   1.483       .  S
O133        C141   1.260       .  A
O134        C141   1.259       .  A
C135        O142   1.258       .  A
C135        O136   1.261       .  A
C135        C597   1.485       .  S
C137        O139   1.263       .  A
C137        O143   1.264       .  A
C137        C653   1.484       .  S
C141        C863   1.485       .  S
In144       O146   2.247       .  S
In144       O147   2.245       .  S
In144       O155   2.247       .  S
In144       O149   2.262       .  S
In144       O151   2.269       .  S
In144       O152   2.242       .  S
In144       O153   2.237       .  S
In144       O156   2.245       .  S
C145        O151   1.263       .  A
C145        O153   1.257       .  A
C145        C569   1.487       .  S
O146        C154   1.260       .  A
O147        C154   1.261       .  A
C148        O155   1.259       .  A
C148        O149   1.261       .  A
C148        C594   1.481       .  S
C150        O152   1.262       .  A
C150        O156   1.264       .  A
C150        C625   1.485       .  S
C154        C695   1.483       .  S
In157       O159   2.267       .  S
In157       O160   2.227       .  S
In157       O168   2.217       .  S
In157       O162   2.275       .  S
In157       O164   2.261       .  S
In157       O165   2.221       .  S
In157       O166   2.220       .  S
In157       O169   2.260       .  S
C158        O164   1.264       .  A
C158        O166   1.257       .  A
C158        C706   1.482       .  S
O159        C167   1.261       .  A
O160        C167   1.258       .  A
C161        O168   1.258       .  A
C161        O162   1.262       .  A
C161        C552   1.482       .  S
C163        O165   1.260       .  A
C163        O169   1.263       .  A
C163        C527   1.480       .  S
C167        C538   1.484       .  S
In170       O172   2.255       .  S
In170       O173   2.238       .  S
In170       O181   2.227       .  S
In170       O175   2.261       .  S
In170       O177   2.285       .  S
In170       O178   2.251       .  S
In170       O179   2.223       .  S
In170       O182   2.232       .  S
C171        O177   1.263       .  A
C171        O179   1.259       .  A
C171        C580   1.489       .  S
O172        C180   1.262       .  A
O173        C180   1.260       .  A
C174        O181   1.257       .  A
C174        O175   1.263       .  A
C174        C555   1.482       .  S
C176        O178   1.261       .  A
C176        O182   1.262       .  A
C176        C499   1.483       .  S
C180        C510   1.484       .  S
In183       O185   2.253       .  S
In183       O186   2.249       .  S
In183       O194   2.225       .  S
In183       O188   2.273       .  S
In183       O190   2.280       .  S
In183       O191   2.251       .  S
In183       O192   2.226       .  S
In183       O195   2.252       .  S
C184        O190   1.263       .  A
C184        O192   1.259       .  A
C184        C779   1.487       .  S
O185        C193   1.263       .  A
O186        C193   1.261       .  A
C187        O194   1.258       .  A
C187        O188   1.262       .  A
C187        C485   1.481       .  S
C189        O191   1.259       .  A
C189        O195   1.260       .  A
C189        C541   1.484       .  S
C193        C468   1.488       .  S
In196       O198   2.235       .  S
In196       O199   2.249       .  S
In196       O207   2.231       .  S
In196       O201   2.263       .  S
In196       O203   2.284       .  S
In196       O204   2.228       .  S
In196       O205   2.214       .  S
In196       O208   2.264       .  S
C197        O203   1.264       .  A
C197        O205   1.258       .  A
C197        C639   1.488       .  S
O198        C206   1.263       .  A
O199        C206   1.261       .  A
C200        O207   1.257       .  A
C200        O201   1.264       .  A
C200        C482   1.481       .  S
C202        O204   1.260       .  A
C202        O208   1.261       .  A
C202        C513   1.484       .  S
C206        C454   1.481       .  S
In209       O211   2.262       .  S
In209       O212   2.228       .  S
In209       O220   2.226       .  S
In209       O214   2.281       .  S
In209       O216   2.267       .  S
In209       O217   2.243       .  S
In209       O218   2.216       .  S
In209       O221   2.244       .  S
C210        O216   1.266       .  A
C210        O218   1.257       .  A
C210        C849   1.481       .  S
O211        C219   1.261       .  A
O212        C219   1.260       .  A
C213        O220   1.260       .  A
C213        O214   1.264       .  A
C213        C443   1.487       .  S
C215        O217   1.262       .  A
C215        O221   1.263       .  A
C215        C496   1.480       .  S
C219        C426   1.483       .  S
In222       O224   2.269       .  S
In222       O225   2.239       .  S
In222       O233   2.231       .  S
In222       O227   2.274       .  S
In222       O229   2.268       .  S
In222       O230   2.227       .  S
In222       O231   2.226       .  S
In222       O234   2.255       .  S
C223        O229   1.265       .  A
C223        O231   1.258       .  A
C223        C681   1.486       .  S
O224        C232   1.262       .  A
O225        C232   1.260       .  A
C226        O233   1.258       .  A
C226        O227   1.264       .  A
C226        C440   1.485       .  S
C228        O230   1.262       .  A
C228        O234   1.263       .  A
C228        C398   1.483       .  S
C232        C412   1.489       .  S
In235       O237   2.234       .  S
In235       O238   2.236       .  S
In235       O246   2.236       .  S
In235       O240   2.271       .  S
In235       O242   2.292       .  S
In235       O243   2.240       .  S
In235       O244   2.223       .  S
In235       O247   2.263       .  S
C236        O242   1.260       .  A
C236        O244   1.254       .  A
C236        C933   1.483       .  S
O237        C245   1.266       .  A
O238        C245   1.264       .  A
C239        O246   1.257       .  A
C239        O240   1.260       .  A
C239        C384   1.476       .  S
C241        O243   1.256       .  A
C241        O247   1.260       .  A
C241        C429   1.484       .  S
C245        C457   1.482       .  S
In248       O250   2.255       .  S
In248       O251   2.245       .  S
In248       O259   2.230       .  S
In248       O253   2.282       .  S
In248       O255   2.257       .  S
In248       O256   2.264       .  S
In248       O257   2.264       .  S
In248       O260   2.245       .  S
C249        O255   1.257       .  A
C249        O257   1.256       .  A
C249        C734   1.484       .  S
O250        C258   1.263       .  A
O251        C258   1.264       .  A
C252        O259   1.258       .  A
C252        O253   1.261       .  A
C252        C387   1.484       .  S
C254        O256   1.263       .  A
C254        O260   1.261       .  A
C254        C415   1.489       .  S
C258        C370   1.489       .  S
In261       O263   2.238       .  S
In261       O264   2.259       .  S
In261       O272   2.237       .  S
In261       O266   2.256       .  S
In261       O268   2.276       .  S
In261       O269   2.247       .  S
In261       O270   2.228       .  S
In261       O273   2.253       .  S
C262        O268   1.262       .  A
C262        O270   1.258       .  A
C262        C566   1.486       .  S
O263        C271   1.262       .  A
O264        C271   1.263       .  A
C265        O272   1.260       .  A
C265        O266   1.260       .  A
C265        C356   1.479       .  S
C267        O269   1.261       .  A
C267        O273   1.260       .  A
C267        C401   1.483       .  S
C271        C342   1.487       .  S
In274       O276   2.244       .  S
In274       O277   2.244       .  S
In274       O285   2.232       .  S
In274       O279   2.261       .  S
In274       O281   2.265       .  S
In274       O282   2.236       .  S
In274       O283   2.222       .  S
In274       O286   2.245       .  S
C275        O281   1.263       .  A
C275        O283   1.257       .  A
C275        C821   1.479       .  S
O276        C284   1.263       .  A
O277        C284   1.262       .  A
C278        O285   1.258       .  A
C278        O279   1.260       .  A
C278        C359   1.477       .  S
C280        O282   1.261       .  A
C280        O286   1.260       .  A
C280        C524   1.480       .  S
C284        C328   1.484       .  S
In287       O289   2.265       .  S
In287       O290   2.254       .  S
In287       O298   2.257       .  S
In287       O292   2.264       .  S
In287       O294   2.287       .  S
In287       O295   2.238       .  S
In287       O296   2.226       .  S
In287       O299   2.254       .  S
C288        O294   1.265       .  A
C288        O296   1.259       .  A
C288        C608   1.490       .  S
O289        C297   1.260       .  A
O290        C297   1.260       .  A
C291        O298   1.258       .  A
C291        O292   1.262       .  A
C291        C317   1.486       .  S
C293        O295   1.263       .  A
C293        O299   1.264       .  A
C293        C345   1.486       .  S
C297        C373   1.490       .  S
In300       O302   2.241       .  S
In300       O303   2.264       .  S
In300       O311   2.263       .  S
In300       O305   2.259       .  S
In300       O307   2.274       .  S
In300       O308   2.234       .  S
In300       O309   2.225       .  S
In300       O312   2.256       .  S
C301        O307   1.265       .  A
C301        O309   1.257       .  A
C301        C891   1.483       .  S
O302        C310   1.260       .  A
O303        C310   1.262       .  A
C304        O311   1.260       .  A
C304        O305   1.262       .  A
C304        C314   1.485       .  S
C306        O308   1.263       .  A
C306        O312   1.262       .  A
C306        C331   1.485       .  S
C310        C471   1.486       .  S
C313        C314   1.404       .  A
C313        C318   1.403       .  A
C313        H320   1.081       .  S
C314        C315   1.412       .  A
C315        C316   1.404       .  A
C315        N322   1.428       .  S
C316        C317   1.404       .  A
C316        H321   1.081       .  S
C317        C318   1.413       .  A
C318        N319   1.429       .  S
N319        O323   1.262       .  A
N319        O324   1.262       .  A
N322        O326   1.262       .  A
N322        O325   1.262       .  A
C327        C328   1.405       .  A
C327        C332   1.402       .  A
C327        H334   1.081       .  S
C328        C329   1.412       .  A
C329        C330   1.400       .  A
C329        N336   1.429       .  S
C330        C331   1.404       .  A
C330        H335   1.081       .  S
C331        C332   1.414       .  A
C332        N333   1.429       .  S
N333        O337   1.262       .  A
N333        O338   1.262       .  A
N336        O340   1.262       .  A
N336        O339   1.262       .  A
C341        C342   1.405       .  A
C341        C346   1.401       .  A
C341        H348   1.081       .  S
C342        C343   1.414       .  A
C343        C344   1.403       .  A
C343        N350   1.429       .  S
C344        C345   1.406       .  A
C344        H349   1.081       .  S
C345        C346   1.412       .  A
C346        N347   1.429       .  S
N347        O351   1.262       .  A
N347        O352   1.262       .  A
N350        O354   1.262       .  A
N350        O353   1.262       .  A
C355        C356   1.404       .  A
C355        C360   1.400       .  A
C355        H362   1.081       .  S
C356        C357   1.411   1_556  A
C357        C358   1.399       .  A
C357        N364   1.429       .  S
C358        C359   1.404       .  A
C358        H363   1.081       .  S
C359        C360   1.411   1_554  A
C360        N361   1.429       .  S
N361        O365   1.262       .  A
N361        O366   1.262       .  A
N364        O368   1.262       .  A
N364        O367   1.262       .  A
C369        C370   1.405       .  A
C369        C374   1.402       .  A
C369        H376   1.081       .  S
C370        C371   1.414       .  A
C371        C372   1.404       .  A
C371        N378   1.429       .  S
C372        C373   1.406       .  A
C372        H377   1.081       .  S
C373        C374   1.413       .  A
C374        N375   1.428       .  S
N375        O379   1.262       .  A
N375        O380   1.262       .  A
N378        O382   1.262       .  A
N378        O381   1.262       .  A
C383        C384   1.404       .  A
C383        C388   1.407       .  A
C383        H390   1.081       .  S
C384        C385   1.409       .  A
C385        C386   1.395       .  A
C385        N392   1.429       .  S
C386        C387   1.404       .  A
C386        H391   1.081       .  S
C387        C388   1.415       .  A
C388        N389   1.428       .  S
N389        O393   1.262       .  A
N389        O394   1.262       .  A
N392        O396   1.262       .  A
N392        O395   1.262       .  A
C397        C398   1.405       .  A
C397        C402   1.399       .  A
C397        H404   1.081       .  S
C398        C399   1.412   1_554  A
C399        C400   1.402       .  A
C399        N406   1.429       .  S
C400        C401   1.406       .  A
C400        H405   1.081       .  S
C401        C402   1.412   1_556  A
C402        N403   1.429       .  S
N403        O407   1.262       .  A
N403        O408   1.262       .  A
N406        O410   1.262       .  A
N406        O409   1.262       .  A
C411        C412   1.406       .  A
C411        C416   1.402       .  A
C411        H418   1.081       .  S
C412        C413   1.413       .  A
C413        C414   1.403       .  A
C413        N420   1.429       .  S
C414        C415   1.407       .  A
C414        H419   1.081       .  S
C415        C416   1.413       .  A
C416        N417   1.428       .  S
N417        O421   1.262       .  A
N417        O422   1.262       .  A
N420        O424   1.262       .  A
N420        O423   1.262       .  A
C425        C426   1.404       .  A
C425        C430   1.397       .  A
C425        H432   1.081       .  S
C426        C427   1.413       .  A
C427        C428   1.404       .  A
C427        N434   1.429       .  S
C428        C429   1.406       .  A
C428        H433   1.081       .  S
C429        C430   1.413       .  A
C430        N431   1.429       .  S
N431        O435   1.262       .  A
N431        O436   1.262       .  A
N434        O438   1.262       .  A
N434        O437   1.262       .  A
C439        C440   1.406       .  A
C439        C444   1.409   1_554  A
C439        H446   1.081       .  S
C440        C441   1.412       .  A
C441        C442   1.397   1_554  A
C441        N448   1.430       .  S
C442        C443   1.404       .  A
C442        H447   1.081       .  S
C443        C444   1.414       .  A
C444        N445   1.428       .  S
N445        O449   1.262   1_556  A
N445        O450   1.262       .  A
N448        O452   1.262   1_554  A
N448        O451   1.262       .  A
C453        C454   1.403       .  A
C453        C458   1.399       .  A
C453        H460   1.081       .  S
C454        C455   1.413       .  A
C455        C456   1.400       .  A
C455        N462   1.429       .  S
C456        C457   1.405       .  A
C456        H461   1.081       .  S
C457        C458   1.413       .  A
C458        N459   1.429       .  S
N459        O463   1.262       .  A
N459        O464   1.262       .  A
N462        O466   1.262       .  A
N462        O465   1.262       .  A
C467        C468   1.406       .  A
C467        C472   1.403       .  A
C467        H474   1.081       .  S
C468        C469   1.414       .  A
C469        C470   1.401       .  A
C469        N476   1.429       .  S
C470        C471   1.404       .  A
C470        H475   1.081       .  S
C471        C472   1.414       .  A
C472        N473   1.429       .  S
N473        O477   1.262       .  A
N473        O478   1.262       .  A
N476        O480   1.262       .  A
N476        O479   1.262       .  A
C481        C482   1.405       .  A
C481        C486   1.405       .  A
C481        H488   1.081       .  S
C482        C483   1.412       .  A
C483        C484   1.396       .  A
C483        N490   1.430       .  S
C484        C485   1.403       .  A
C484        H489   1.081       .  S
C485        C486   1.412       .  A
C486        N487   1.428       .  S
N487        O491   1.262       .  A
N487        O492   1.262       .  A
N490        O494   1.262       .  A
N490        O493   1.262       .  A
C495        C496   1.404   1_554  A
C495        C500   1.402       .  A
C495        H502   1.081       .  S
C496        C497   1.412       .  A
C497        C498   1.398       .  A
C497        N504   1.429       .  S
C498        C499   1.404   1_556  A
C498        H503   1.081       .  S
C499        C500   1.414       .  A
C500        N501   1.429       .  S
N501        O505   1.262       .  A
N501        O506   1.262       .  A
N504        O508   1.262       .  A
N504        O507   1.262       .  A
C509        C510   1.406       .  A
C509        C514   1.404       .  A
C509        H516   1.081       .  S
C510        C511   1.412       .  A
C511        C512   1.397       .  A
C511        N518   1.429       .  S
C512        C513   1.404       .  A
C512        H517   1.081       .  S
C513        C514   1.413       .  A
C514        N515   1.429       .  S
N515        O519   1.262       .  A
N515        O520   1.262       .  A
N518        O522   1.262       .  A
N518        O521   1.262       .  A
C523        C524   1.405       .  A
C523        C528   1.400       .  A
C523        H530   1.081       .  S
C524        C525   1.412   1_554  A
C525        C526   1.398       .  A
C525        N532   1.429       .  S
C526        C527   1.405       .  A
C526        H531   1.081       .  S
C527        C528   1.411   1_556  A
C528        N529   1.428       .  S
N529        O533   1.262       .  A
N529        O534   1.262       .  A
N532        O536   1.262       .  A
N532        O535   1.262       .  A
C537        C538   1.405       .  A
C537        C542   1.399       .  A
C537        H544   1.081       .  S
C538        C539   1.412       .  A
C539        C540   1.402       .  A
C539        N546   1.428       .  S
C540        C541   1.406       .  A
C540        H545   1.081       .  S
C541        C542   1.413       .  A
C542        N543   1.429       .  S
N543        O547   1.262       .  A
N543        O548   1.262       .  A
N546        O550   1.262       .  A
N546        O549   1.262       .  A
C551        C552   1.403       .  A
C551        C556   1.395   1_556  A
C551        H558   1.081       .  S
C552        C553   1.412       .  A
C553        C554   1.405   1_556  A
C553        N560   1.428       .  S
C554        C555   1.406       .  A
C554        H559   1.081       .  S
C555        C556   1.413       .  A
C556        N557   1.430       .  S
N557        O561   1.262       .  A
N557        O562   1.262   1_554  A
N560        O564   1.262       .  A
N560        O563   1.262   1_556  A
C565        C566   1.404       .  A
C565        C570   1.397       .  A
C565        H572   1.081       .  S
C566        C567   1.413       .  A
C567        C568   1.406       .  A
C567        N574   1.428       .  S
C568        C569   1.406       .  A
C568        H573   1.081       .  S
C569        C570   1.414       .  A
C570        N571   1.429       .  S
N571        O575   1.262       .  A
N571        O576   1.262       .  A
N574        O578   1.262       .  A
N574        O577   1.262       .  A
C579        C580   1.404       .  A
C579        C584   1.395   1_545  A
C579        H586   1.081       .  S
C580        C581   1.416       .  A
C581        C582   1.409   1_545  A
C581        N588   1.428       .  S
C582        C583   1.405       .  A
C582        H587   1.081       .  S
C583        C584   1.411       .  A
C584        N585   1.429       .  S
N585        O589   1.262       .  A
N585        O590   1.262       .  A
N588        O592   1.262   1_554  A
N588        O591   1.262       .  A
C593        C594   1.405       .  A
C593        C598   1.404       .  A
C593        H600   1.081       .  S
C594        C595   1.410   1_556  A
C595        C596   1.401       .  A
C595        N602   1.429       .  S
C596        C597   1.405       .  A
C596        H601   1.081       .  S
C597        C598   1.413   1_554  A
C598        N599   1.428       .  S
N599        O603   1.262       .  A
N599        O604   1.262       .  A
N602        O606   1.262       .  A
N602        O605   1.262       .  A
C607        C608   1.404       .  A
C607        C612   1.398       .  A
C607        H614   1.081       .  S
C608        C609   1.413       .  A
C609        C610   1.408       .  A
C609        N616   1.428       .  S
C610        C611   1.407       .  A
C610        H615   1.081       .  S
C611        C612   1.414       .  A
C612        N613   1.429       .  S
N613        O617   1.262       .  A
N613        O618   1.262       .  A
N616        O620   1.262       .  A
N616        O619   1.262       .  A
C621        C622   1.403       .  A
C621        C626   1.398       .  A
C621        H628   1.081       .  S
C622        C623   1.412       .  A
C623        C624   1.403       .  A
C623        N630   1.429       .  S
C624        C625   1.407       .  A
C624        H629   1.081       .  S
C625        C626   1.413       .  A
C626        N627   1.428       .  S
N627        O631   1.262       .  A
N627        O632   1.262       .  A
N630        O634   1.262       .  A
N630        O633   1.262       .  A
C635        C636   1.407       .  A
C635        C640   1.408   1_565  A
C635        H642   1.081       .  S
C636        C637   1.413       .  A
C637        C638   1.395   1_565  A
C637        N644   1.430       .  S
C638        C639   1.404       .  A
C638        H643   1.081       .  S
C639        C640   1.414       .  A
C640        N641   1.428       .  S
N641        O645   1.262       .  A
N641        O646   1.262       .  A
N644        O648   1.262       .  A
N644        O647   1.262       .  A
C649        C650   1.405       .  A
C649        C654   1.403       .  A
C649        H656   1.081       .  S
C650        C651   1.411       .  A
C651        C652   1.398       .  A
C651        N658   1.429       .  S
C652        C653   1.404       .  A
C652        H657   1.081       .  S
C653        C654   1.414       .  A
C654        N655   1.429       .  S
N655        O659   1.262       .  A
N655        O660   1.262       .  A
N658        O662   1.262       .  A
N658        O661   1.262       .  A
C663        C664   1.408       .  A
C663        C668   1.408       .  A
C663        H670   1.081       .  S
C664        C665   1.413       .  A
C665        C666   1.396       .  A
C665        N672   1.429       .  S
C666        C667   1.403       .  A
C666        H671   1.082       .  S
C667        C668   1.411       .  A
C668        N669   1.428       .  S
N669        O673   1.262       .  A
N669        O674   1.262       .  A
N672        O676   1.262       .  A
N672        O675   1.262       .  A
C677        C678   1.403       .  A
C677        C682   1.395       .  A
C677        H684   1.081       .  S
C678        C679   1.412       .  A
C679        C680   1.406       .  A
C679        N686   1.428       .  S
C680        C681   1.407       .  A
C680        H685   1.081       .  S
C681        C682   1.415       .  A
C682        N683   1.429       .  S
N683        O687   1.262       .  A
N683        O688   1.262       .  A
N686        O690   1.262       .  A
N686        O689   1.262   1_554  A
C691        C692   1.405       .  A
C691        C696   1.399       .  A
C691        H698   1.081       .  S
C692        C693   1.413   1_554  A
C693        C694   1.402       .  A
C693        N700   1.429       .  S
C694        C695   1.405       .  A
C694        H699   1.081       .  S
C695        C696   1.412   1_556  A
C696        N697   1.429       .  S
N697        O701   1.262       .  A
N697        O702   1.262       .  A
N700        O704   1.262       .  A
N700        O703   1.262       .  A
C705        C706   1.406       .  A
C705        C710   1.405   1_655  A
C705        H712   1.081       .  S
C706        C707   1.413       .  A
C707        C708   1.393   1_655  A
C707        N714   1.430       .  S
C708        C709   1.403       .  A
C708        H713   1.081       .  S
C709        C710   1.413       .  A
C710        N711   1.428       .  S
N711        O715   1.262   1_556  A
N711        O716   1.262       .  A
N714        O718   1.262       .  A
N714        O717   1.262       .  A
C719        C720   1.403   1_554  A
C719        C724   1.399       .  A
C719        H726   1.081       .  S
C720        C721   1.411       .  A
C721        C722   1.398       .  A
C721        N728   1.429       .  S
C722        C723   1.402   1_556  A
C722        H727   1.081       .  S
C723        C724   1.410       .  A
C724        N725   1.429       .  S
N725        O729   1.262       .  A
N725        O730   1.262       .  A
N728        O732   1.262       .  A
N728        O731   1.262       .  A
C733        C734   1.406       .  A
C733        C738   1.402       .  A
C733        H740   1.081       .  S
C734        C735   1.413       .  A
C735        C736   1.400       .  A
C735        N742   1.429       .  S
C736        C737   1.404       .  A
C736        H741   1.081       .  S
C737        C738   1.412       .  A
C738        N739   1.429       .  S
N739        O743   1.262       .  A
N739        O744   1.262       .  A
N742        O746   1.262       .  A
N742        O745   1.262       .  A
C747        C748   1.404       .  A
C747        C752   1.400       .  A
C747        H754   1.081       .  S
C748        C749   1.414       .  A
C749        C750   1.401       .  A
C749        N756   1.429       .  S
C750        C751   1.405       .  A
C750        H755   1.081       .  S
C751        C752   1.413       .  A
C752        N753   1.428       .  S
N753        O757   1.262       .  A
N753        O758   1.262       .  A
N756        O760   1.262       .  A
N756        O759   1.262       .  A
C761        C762   1.404       .  A
C761        C766   1.399       .  A
C761        H768   1.081       .  S
C762        C763   1.412       .  A
C763        C764   1.401       .  A
C763        N770   1.429       .  S
C764        C765   1.406       .  A
C764        H769   1.081       .  S
C765        C766   1.412       .  A
C766        N767   1.428       .  S
N767        O771   1.262       .  A
N767        O772   1.262       .  A
N770        O774   1.262       .  A
N770        O773   1.262       .  A
C775        C776   1.407       .  A
C775        C780   1.407   1_455  A
C775        H782   1.081       .  S
C776        C777   1.414       .  A
C777        C778   1.396   1_455  A
C777        N784   1.429       .  S
C778        C779   1.403       .  A
C778        H783   1.081       .  S
C779        C780   1.414       .  A
C780        N781   1.428       .  S
N781        O785   1.262       .  A
N781        O786   1.262       .  A
N784        O788   1.262       .  A
N784        O787   1.262       .  A
C789        C790   1.404       .  A
C789        C794   1.402       .  A
C789        H796   1.081       .  S
C790        C791   1.412       .  A
C791        C792   1.397       .  A
C791        N798   1.429       .  S
C792        C793   1.404       .  A
C792        H797   1.081       .  S
C793        C794   1.413       .  A
C794        N795   1.429       .  S
N795        O799   1.262       .  A
N795        O800   1.262       .  A
N798        O802   1.262       .  A
N798        O801   1.262       .  A
C803        C804   1.405       .  A
C803        C808   1.403       .  A
C803        H810   1.081       .  S
C804        C805   1.412       .  A
C805        C806   1.400       .  A
C805        N812   1.429       .  S
C806        C807   1.403       .  A
C806        H811   1.081       .  S
C807        C808   1.412       .  A
C808        N809   1.429       .  S
N809        O813   1.262       .  A
N809        O814   1.262       .  A
N812        O816   1.262       .  A
N812        O815   1.262       .  A
C817        C818   1.402       .  A
C817        C822   1.393   1_455  A
C817        H824   1.081       .  S
C818        C819   1.413       .  A
C819        C820   1.406   1_455  A
C819        N826   1.429       .  S
C820        C821   1.406       .  A
C820        H825   1.081       .  S
C821        C822   1.411       .  A
C822        N823   1.429       .  S
N823        O827   1.262       .  A
N823        O828   1.262       .  A
N826        O830   1.262       .  A
N826        O829   1.262       .  A
C831        C832   1.405   1_556  A
C831        C836   1.401       .  A
C831        H838   1.081       .  S
C832        C833   1.414       .  A
C833        C834   1.404       .  A
C833        N840   1.429       .  S
C834        C835   1.406   1_554  A
C834        H839   1.081       .  S
C835        C836   1.414       .  A
C836        N837   1.428       .  S
N837        O841   1.262       .  A
N837        O842   1.262       .  A
N840        O844   1.262       .  A
N840        O843   1.262       .  A
C845        C846   1.404       .  A
C845        C850   1.393   1_565  A
C845        H852   1.081       .  S
C846        C847   1.413       .  A
C847        C848   1.406   1_565  A
C847        N854   1.428       .  S
C848        C849   1.405       .  A
C848        H853   1.081       .  S
C849        C850   1.413       .  A
C850        N851   1.430       .  S
N851        O855   1.262       .  A
N851        O856   1.262       .  A
N854        O858   1.262       .  A
N854        O857   1.262       .  A
C859        C860   1.405   1_554  A
C859        C864   1.401       .  A
C859        H866   1.081       .  S
C860        C861   1.413       .  A
C861        C862   1.401       .  A
C861        N868   1.429       .  S
C862        C863   1.405   1_556  A
C862        H867   1.081       .  S
C863        C864   1.413       .  A
C864        N865   1.429       .  S
N865        O869   1.262       .  A
N865        O870   1.262       .  A
N868        O872   1.262       .  A
N868        O871   1.262       .  A
C873        C874   1.406       .  A
C873        C878   1.402       .  A
C873        H880   1.081       .  S
C874        C875   1.413   1_554  A
C875        C876   1.400       .  A
C875        N882   1.428       .  S
C876        C877   1.402       .  A
C876        H881   1.081       .  S
C877        C878   1.410   1_556  A
C878        N879   1.429       .  S
N879        O883   1.262       .  A
N879        O884   1.262       .  A
N882        O886   1.262       .  A
N882        O885   1.262       .  A
C887        C888   1.403       .  A
C887        C892   1.396   1_455  A
C887        H894   1.081       .  S
C888        C889   1.415       .  A
C889        C890   1.407   1_455  A
C889        N896   1.428       .  S
C890        C891   1.405       .  A
C890        H895   1.081       .  S
C891        C892   1.413       .  A
C892        N893   1.430       .  S
N893        O897   1.262       .  A
N893        O898   1.262       .  A
N896        O900   1.262       .  A
N896        O899   1.262       .  A
C901        C902   1.405       .  A
C901        C906   1.400       .  A
C901        H908   1.081       .  S
C902        C903   1.413       .  A
C903        C904   1.400       .  A
C903        N910   1.429       .  S
C904        C905   1.405       .  A
C904        H909   1.081       .  S
C905        C906   1.413       .  A
C906        N907   1.429       .  S
N907        O911   1.262       .  A
N907        O912   1.262       .  A
N910        O914   1.262       .  A
N910        O913   1.262       .  A
C915        C916   1.403       .  A
C915        C920   1.397       .  A
C915        H922   1.081       .  S
C916        C917   1.411       .  A
C917        C918   1.399       .  A
C917        N924   1.429       .  S
C918        C919   1.405       .  A
C918        H923   1.081       .  S
C919        C920   1.412       .  A
C920        N921   1.429       .  S
N921        O925   1.262       .  A
N921        O926   1.262       .  A
N924        O928   1.262       .  A
N924        O927   1.262       .  A
C929        C930   1.404       .  A
C929        C934   1.406   1_565  A
C929        H936   1.081       .  S
C930        C931   1.409       .  A
C931        C932   1.394   1_565  A
C931        N938   1.430       .  S
C932        C933   1.404       .  A
C932        H937   1.081       .  S
C933        C934   1.413       .  A
C934        N935   1.428       .  S
N935        O939   1.262       .  A
N935        O940   1.262       .  A
N938        O942   1.262       .  A
N938        O941   1.262       .  A
C943        C944   1.404       .  A
C943        C948   1.400       .  A
C943        H950   1.081       .  S
C944        C945   1.412       .  A
C945        C946   1.401       .  A
C945        N952   1.429       .  S
C946        C947   1.405       .  A
C946        H951   1.081       .  S
C947        C948   1.414       .  A
C948        N949   1.429       .  S
N949        O953   1.262       .  A
N949        O954   1.262       .  A
N952        O956   1.262       .  A
N952        O955   1.262       .  A
C957        C958   1.405       .  A
C957        C962   1.401       .  A
C957        H964   1.081       .  S
C958        C959   1.413       .  A
C959        C960   1.401       .  A
C959        N966   1.429       .  S
C960        C961   1.405       .  A
C960        H965   1.081       .  S
C961        C962   1.412       .  A
C962        N963   1.429       .  S
N963        O967   1.262       .  A
N963        O968   1.262       .  A
N966        O970   1.262       .  A
N966        O969   1.262       .  A
C971        C972   1.402       .  A
C971        C976   1.398       .  A
C971        H978   1.081       .  S
C972        C973   1.410       .  A
C973        C974   1.399       .  A
C973        N980   1.429       .  S
C974        C975   1.404       .  A
C974        H979   1.081       .  S
C975        C976   1.412       .  A
C976        N977   1.429       .  S
N977        O981   1.262       .  A
N977        O982   1.262       .  A
N980        O984   1.262       .  A
N980        O983   1.262       .  A
