geometry optimzed in LAMMPS
_audit_creation_date              2020-12-01 
_audit_creation_method            'lammps2cif' 
_symmetry_space_group_name_H-M    'P1' 
_symmetry_Int_Tables_number       1 
_symmetry_cell_setting            triclinic 
loop_ 
_symmetry_equiv_pos_as_xyz 
  x,y,z 
_cell_length_a                    43.4681182 
_cell_length_b                    43.49524811807126 
_cell_length_c                    27.69328247147155 
_cell_angle_alpha                 90.3255775252082 
_cell_angle_beta                  89.85947065362195 
_cell_angle_gamma                 120.009950100404 
loop_ 
_atom_site_label 
_atom_site_type_symbol 
_atom_site_fract_x 
_atom_site_fract_y 
_atom_site_fract_z 
_atom_site_charge 
O1          O  0.43502432  0.40815270  0.31245784    -0.74100
O2          O  0.34643915  0.32046854  0.31121523    -0.74100
O3          O  0.37798934  0.37793376  0.25256912    -0.74200
O4          O  0.40393202  0.35122542  0.37068258    -0.74200
O5          O  0.37806177  0.37599168  0.41257628    -0.74200
O6          O  0.35339069  0.40397887  0.29445322    -0.74100
O7          O  0.32107644  0.34621391  0.35210735    -0.74100
O8          O  0.40970477  0.43332007  0.35476360    -0.74200
Ni9        Ni  0.39160739  0.36340609  0.31020510     1.25400
Ni10       Ni  0.36455281  0.39064639  0.35497823     1.25400
C11         C  0.43700207  0.43516791  0.33419090     0.88100
C12         C  0.31911144  0.31892636  0.33128478     0.88000
C13         C  0.36211839  0.39607026  0.25397111     0.88000
C14         C  0.39625327  0.36018310  0.41114834     0.88200
O15         O  0.06862421  0.09750467  0.31318299    -0.74100
O16         O  0.15620920  0.18619520  0.31130965    -0.74100
O17         O  0.12545865  0.12765329  0.25325130    -0.74200
O18         O  0.09899668  0.15546579  0.37097650    -0.74200
O19         O  0.12553511  0.13189234  0.41310668    -0.74200
O20         O  0.15071252  0.10289291  0.29595683    -0.74100
O21         O  0.18217997  0.16158528  0.35277212    -0.74100
O22         O  0.09456957  0.07342953  0.35588294    -0.74200
Ni23       Ni  0.11150358  0.14268958  0.31062650     1.25400
Ni24       Ni  0.13926793  0.11674372  0.35596061     1.25400
C25         C  0.06716792  0.07085007  0.33483837     0.88100
C26         C  0.18368344  0.18844416  0.33172545     0.88000
C27         C  0.14147528  0.10966846  0.25530064     0.88000
C28         C  0.10725194  0.14760715  0.41161768     0.88200
O29         O  0.47894798  0.41038647  0.68663990    -0.74100
O30         O  0.47740954  0.32172673  0.68581753    -0.74100
O31         O  0.50525305  0.37935716  0.74520879    -0.74200
O32         O  0.45156046  0.35342452  0.62766420    -0.74200
O33         O  0.00195613  0.37755983  0.58557392    -0.74200
O34         O  0.05568154  0.40443903  0.70333114    -0.74100
O35         O  0.02825276  0.34640654  0.64460068    -0.74100
O36         O  0.02938755  0.43508161  0.64450319    -0.74200
Ni37       Ni  0.47655441  0.36526838  0.68789841     1.25400
Ni38       Ni  0.03061546  0.39162884  0.64297355     1.25400
C39         C  0.00425815  0.43727966  0.66546865     0.88100
C40         C  0.00245501  0.31935928  0.66492595     0.88000
C41         C  0.03932669  0.39702197  0.74385994     0.88000
C42         C  0.46794190  0.36193026  0.58712720     0.88200
O43         O  0.47565123  0.07056431  0.64461632    -0.74100
O44         O  0.47636295  0.15900004  0.64668109    -0.74100
O45         O  0.50424244  0.12894769  0.58780049    -0.74200
O46         O  0.44780037  0.09993809  0.70314562    -0.74200
O47         O  0.99721743  0.12512949  0.74747168    -0.74200
O48         O  0.05360048  0.15225396  0.63221843    -0.74100
O49         O  0.02636202  0.18346867  0.68977379    -0.74100
O50         O  0.02476103  0.09478639  0.68964547    -0.74200
Ni51       Ni  0.47425371  0.11390825  0.64395426     1.25400
Ni52       Ni  0.02720088  0.13989648  0.69140115     1.25400
C53         C  0.00003935  0.06808734  0.66708916     0.88100
C54         C  0.00174961  0.18596612  0.66803618     0.88000
C55         C  0.03817883  0.14422531  0.59097097     0.88000
C56         C  0.46326612  0.10679617  0.74435248     0.88200
O57         O  0.43118140  0.02446674  0.01724303    -0.74700
O58         O  0.34221052  0.02252825  0.01893817    -0.74100
O59         O  0.37485136  0.99770656  0.07729909    -0.74200
O60         O  0.39925024  0.04955189  0.95889685    -0.74200
O61         O  0.37417953  0.49947874  0.91777037    -0.74200
O62         O  0.34962008  0.44687112  0.03632674    -0.74100
O63         O  0.31715909  0.47240318  0.97830433    -0.74100
O64         O  0.40575397  0.47357846  0.97606051    -0.74200
Ni65       Ni  0.38761159  0.02535358  0.01950692     1.25400
Ni66       Ni  0.36063929  0.47128744  0.97556425     1.25400
C67         C  0.43317780  0.99897739  0.99696953     0.88100
C68         C  0.31487441  0.99666889  0.99892393     0.88000
C69         C  0.35894306  0.46370342  0.07668692     0.88000
C70         C  0.39181076  0.03289727  0.91846330     0.88200
O71         O  0.06817235  0.47580353  0.02309838    -0.74100
O72         O  0.15537670  0.47413638  0.02385975    -0.74100
O73         O  0.12518274  0.50229793  0.08221065    -0.74200
O74         O  0.09766446  0.44778483  0.96518400    -0.74200
O75         O  0.12409355  0.99668319  0.92375581    -0.74200
O76         O  0.15040442  0.05161723  0.04079043    -0.74100
O77         O  0.18135631  0.02371569  0.98389547    -0.74100
O78         O  0.09408923  0.02503995  0.98103817    -0.74200
Ni79       Ni  0.11084413  0.47325252  0.02515390     1.25400
Ni80       Ni  0.13857080  0.02601742  0.98079443     1.25400
C81         C  0.06677793  0.00059386  0.00262770     0.88100
C82         C  0.18246111  0.99806887  0.00466682     0.88000
C83         C  0.14116619  0.03562483  0.08148908     0.88000
C84         C  0.10550962  0.46378539  0.92451419     0.88200
C85         C  0.99919987  0.03160283  0.99843456    -0.11900
C86         C  0.46717404  0.99904472  0.99806384     0.05100
C87         C  0.46811519  0.46716987  0.99708714    -0.07200
C88         C  0.00087837  0.46844898  0.99884544    -0.08000
C89         C  0.03296333  0.00084709  0.00146179    -0.02500
C90         C  0.03194703  0.03275173  0.99986338     0.04300
N91         N  0.06382713  0.06651311  0.00160361     0.66800
H92         H  0.99884881  0.05629483  0.99755540     0.15700
H93         H  0.00129989  0.44383457  0.99915404     0.15400
N94         N  0.43634918  0.43327825  0.99655201     0.74500
O95         O  0.07512928  0.08499141  0.96385646    -0.38900
O96         O  0.07790151  0.07983858  0.04182811    -0.38900
O97         O  0.42836576  0.41381865  0.95941713    -0.39600
O98         O  0.41919762  0.42076265  0.03516201    -0.39700
C99         C  0.21622716  0.46734150  0.99276170    -0.11900
C100        C  0.21600449  0.99742762  0.00469877     0.05100
C101        C  0.24816573  0.02749563  0.01846120    -0.07200
C102        C  0.27983479  0.02655075  0.01657533    -0.08000
C103        C  0.28034664  0.99605222  0.00052920    -0.02500
C104        C  0.24782205  0.46615835  0.99092676     0.04300
N105        N  0.24590411  0.43319656  0.97925313     0.66800
H106        H  0.19120450  0.44339881  0.98468550     0.15700
H107        H  0.30426794  0.05009894  0.02765784     0.15400
N108        N  0.24883355  0.05876315  0.03610422     0.74500
O109        O  0.24476237  0.41303252  0.01264487    -0.38900
O110        O  0.24035948  0.42207339  0.93619144    -0.38900
O111        O  0.24569967  0.06238109  0.08077790    -0.39600
O112        O  0.25736439  0.08462474  0.00818702    -0.39700
C113        C  0.41086684  0.05756821  0.78538228    -0.11900
C114        C  0.44182974  0.09100075  0.78857054     0.05100
C115        C  0.45361839  0.10659158  0.83453636    -0.07200
C116        C  0.43563773  0.08798409  0.87605280    -0.08000
C117        C  0.40594946  0.05356561  0.87313717    -0.02500
C118        C  0.39299111  0.03877244  0.82695806     0.04300
N119        N  0.36207242  0.00453259  0.82156325     0.66800
H120        H  0.40119177  0.04513005  0.75026312     0.15700
H121        H  0.44609075  0.10016430  0.91107375     0.15400
N122        N  0.48408512  0.14115768  0.83975288     0.74500
O123        O  0.33164467  0.00120536  0.82582886    -0.38900
O124        O  0.36501651  0.97884502  0.80579439    -0.38900
O125        O  0.98035774  0.16811837  0.83934148    -0.39600
O126        O  0.51337570  0.14434073  0.85261242    -0.39700
C127        C  0.10978437  0.45565989  0.83594084    -0.11900
C128        C  0.09094386  0.44307425  0.87930969     0.05100
C129        C  0.05687969  0.41243775  0.87803380    -0.07200
C130        C  0.04145391  0.39678960  0.83372303    -0.08000
C131        C  0.05947101  0.41038494  0.78994844    -0.02500
C132        C  0.09485070  0.43917863  0.79162221     0.04300
N133        N  0.11572591  0.45260445  0.74877816     0.66800
H134        H  0.13645424  0.47882055  0.83638777     0.15700
H135        H  0.01437457  0.37432506  0.83364062     0.15400
N136        N  0.03633371  0.39854737  0.92100055     0.74500
O137        O  0.12610649  0.48401266  0.73559492    -0.38900
O138        O  0.12935430  0.43574958  0.72981505    -0.38900
O139        O  0.01299966  0.40660118  0.93165808    -0.39600
O140        O  0.03698667  0.37359446  0.94311053    -0.39700
C141        C  0.47025341  0.22045055  0.66508500    -0.11900
C142        C  0.00244843  0.22035439  0.66751303     0.05100
C143        C  0.03465160  0.25313881  0.66864034    -0.07200
C144        C  0.03407368  0.28500669  0.66693913    -0.08000
C145        C  0.00186686  0.28506430  0.66481827    -0.02500
C146        C  0.46966113  0.25231886  0.66385739     0.04300
N147        N  0.43621071  0.25094791  0.65977431     0.66800
H148        H  0.44515115  0.19544193  0.66400445     0.15700
H149        H  0.05916444  0.31003545  0.66787989     0.15400
N150        N  0.06819951  0.25456344  0.67007979     0.74500
O151        O  0.42677713  0.25727313  0.61972155    -0.38900
O152        O  0.41428607  0.23900576  0.69419000    -0.38900
O153        O  0.08416562  0.25630689  0.63118726    -0.39600
O154        O  0.08427460  0.25976462  0.70980155    -0.39700
C155        C  0.47108147  0.46985815  0.66079545    -0.11900
C156        C  0.00384181  0.47100891  0.66483918     0.05100
C157        C  0.03503118  0.00422900  0.66641968    -0.07200
C158        C  0.03310849  0.03536926  0.66814620    -0.08000
C159        C  0.00033565  0.03427999  0.66651532    -0.02500
C160        C  0.46879787  0.00106318  0.66437700     0.04300
N161        N  0.43507867  0.49837907  0.65881534     0.66800
H162        H  0.44677506  0.44457076  0.65714376     0.15700
H163        H  0.05753756  0.06062127  0.67002443     0.15400
N164        N  0.06925948  0.00709915  0.66766177     0.74500
O165        O  0.41944023  0.49262775  0.61865475    -0.38900
O166        O  0.41935285  0.99620211  0.70424970    -0.38900
O167        O  0.08562506  0.50549213  0.63935076    -0.39600
O168        O  0.08911545  0.02147262  0.70374912    -0.39700
C169        C  0.10692481  0.14938752  0.50154079    -0.11900
C170        C  0.09386712  0.15446994  0.45769661     0.05100
C171        C  0.06512685  0.16111269  0.45915001    -0.07200
C172        C  0.04771456  0.15839116  0.50307299    -0.08000
C173        C  0.05953932  0.15109016  0.54634555    -0.02500
C174        C  0.09034910  0.14799664  0.54551767     0.04300
N175        N  0.10339051  0.14025761  0.58836843     0.66800
H176        H  0.12913112  0.14481069  0.50166368     0.15700
H177        H  0.02485368  0.16191707  0.50333109     0.15400
N178        N  0.05284469  0.17003552  0.41647639     0.74500
O179        O  0.09102011  0.10840926  0.60106226    -0.38900
O180        O  0.13114081  0.16434378  0.60836661    -0.38900
O181        O  0.02105819  0.15089244  0.40291251    -0.39600
O182        O  0.07204225  0.19978988  0.39680631    -0.39700
C183        C  0.15012272  0.09045159  0.12324615    -0.11900
C184        C  0.14673497  0.05660408  0.12644679     0.05100
C185        C  0.14516007  0.04230959  0.17267706    -0.07200
C186        C  0.14565470  0.06115794  0.21406060    -0.08000
C187        C  0.14707343  0.09405144  0.21074394    -0.02500
C188        C  0.15011434  0.10908504  0.16474634     0.04300
N189        N  0.15302157  0.14311588  0.15950028     0.66800
H190        H  0.15144450  0.10205268  0.08828099     0.15700
H191        H  0.14313583  0.04904028  0.24898151     0.15400
N192        N  0.14265705  0.50868508  0.17690817     0.74500
O193        O  0.18240406  0.17087964  0.16734515    -0.38900
O194        O  0.12793131  0.14552388  0.14058733    -0.38900
O195        O  0.17045181  0.50646559  0.17957338    -0.39600
O196        O  0.11298027  0.48202034  0.18700771    -0.39700
C197        C  0.44324629  0.35444652  0.45410796    -0.11900
C198        C  0.41105760  0.35467144  0.45639159     0.05100
C199        C  0.39605959  0.35347410  0.50210427    -0.07200
C200        C  0.41407136  0.35374157  0.54414501    -0.08000
C201        C  0.44729969  0.35563283  0.54186914    -0.02500
C202        C  0.46143611  0.35507055  0.49611240     0.04300
N203        N  0.99453028  0.35574367  0.49154061     0.66800
H204        H  0.45526487  0.35529252  0.41941687     0.15700
H205        H  0.40260607  0.35407328  0.57882785     0.15400
N206        N  0.36288340  0.35262050  0.50657973     0.74500
O207        O  0.99580523  0.32773476  0.49827325    -0.38900
O208        O  0.02126959  0.38286243  0.47467286    -0.38900
O209        O  0.33434809  0.32314541  0.50720278    -0.39600
O210        O  0.36246041  0.38054189  0.51796091    -0.39700
C211        C  0.03501647  0.00481197  0.33447730    -0.11900
C212        C  0.03364065  0.03639230  0.33505829     0.05100
C213        C  0.00024341  0.03438091  0.33619280    -0.07200
C214        C  0.46916340  0.00127257  0.33630454    -0.08000
C215        C  0.47090149  0.46931728  0.33508807    -0.02500
C216        C  0.00423698  0.47114592  0.33241519     0.04300
N217        N  0.00689174  0.43969319  0.33153337     0.66800
H218        H  0.06058944  0.00586239  0.33402036     0.15700
H219        H  0.44440728  0.50013107  0.34160181     0.15400
N220        N  0.49741039  0.06563891  0.33979499     0.74500
O221        O  0.01458331  0.42982103  0.29265289    -0.38900
O222        O  0.50690482  0.42500950  0.37070290    -0.38900
O223        O  0.99292467  0.07906414  0.30207919    -0.39600
O224        O  0.49209952  0.07523556  0.38055652    -0.39700
C225        C  0.25300558  0.28668314  0.33025987    -0.11900
C226        C  0.28464496  0.28536749  0.33030044     0.05100
C227        C  0.28267795  0.25199457  0.32989258    -0.07200
C228        C  0.24955550  0.22091353  0.33028232    -0.08000
C229        C  0.21792837  0.22218621  0.33071483    -0.02500
C230        C  0.21981130  0.25554093  0.33036173     0.04300
N231        N  0.18839192  0.25828139  0.33229955     0.66800
H232        H  0.25401411  0.31222700  0.33048555     0.15700
H233        H  0.24861345  0.19539996  0.33032452     0.15400
N234        N  0.31403334  0.24917509  0.33112584     0.74500
O235        O  0.17206144  0.25343459  0.37177772    -0.38900
O236        O  0.17974958  0.27012259  0.29646384    -0.38900
O237        O  0.32791480  0.24938710  0.37117972    -0.39600
O238        O  0.32476654  0.24141206  0.29309295    -0.39700
C239        C  0.35284878  0.41109655  0.12071053    -0.11900
C240        C  0.35383725  0.44388441  0.12231944     0.05100
C241        C  0.35378077  0.45870693  0.16783564    -0.07200
C242        C  0.35477472  0.44178380  0.21020000    -0.08000
C243        C  0.35564319  0.40994457  0.20854051    -0.02500
C244        C  0.35359600  0.39402309  0.16315079     0.04300
N245        N  0.35214708  0.36050582  0.15950232     0.66800
H246        H  0.35253395  0.39902367  0.08619417     0.15700
H247        H  0.35604783  0.45437205  0.24465257     0.15400
N248        N  0.35690937  0.99309996  0.17174875     0.74500
O249        O  0.32480393  0.33268939  0.17356890    -0.38900
O250        O  0.37623161  0.35809776  0.13724492    -0.38900
O251        O  0.32864217  0.99431219  0.16748069    -0.39600
O252        O  0.38492300  0.02025827  0.18602702    -0.39700
O253        O  0.43491313  0.90846409  0.31278867    -0.74100
O254        O  0.34654858  0.82056974  0.31140820    -0.74100
O255        O  0.37798205  0.87800514  0.25272687    -0.74200
O256        O  0.40393962  0.85157361  0.37109112    -0.74200
O257        O  0.37785208  0.87620322  0.41279059    -0.74200
O258        O  0.35317870  0.90392499  0.29448385    -0.74100
O259        O  0.32094326  0.84614587  0.35212045    -0.74100
O260        O  0.40935690  0.93351600  0.35486248    -0.74200
Ni261      Ni  0.39161631  0.86361475  0.31049350     1.25400
Ni262      Ni  0.36431271  0.89070122  0.35507220     1.25400
C263        C  0.43671032  0.93545914  0.33434013     0.88100
C264        C  0.31911892  0.81891554  0.33130011     0.88000
C265        C  0.36206643  0.89610014  0.25407185     0.88000
C266        C  0.39617101  0.86052631  0.41149878     0.88200
O267        O  0.06892477  0.59689541  0.31368479    -0.74100
O268        O  0.15627221  0.68582761  0.31148689    -0.74100
O269        O  0.12555817  0.62734541  0.25340729    -0.74200
O270        O  0.09919810  0.65482312  0.37138137    -0.74200
O271        O  0.12591592  0.63133776  0.41329066    -0.74200
O272        O  0.15120341  0.60278854  0.29570356    -0.74100
O273        O  0.18250881  0.66139542  0.35273677    -0.74100
O274        O  0.09522546  0.57294315  0.35591740    -0.74200
Ni275      Ni  0.11166260  0.64219766  0.31094778     1.25400
Ni276      Ni  0.13975362  0.61642070  0.35593707     1.25400
C277        C  0.06769607  0.57029486  0.33520830     0.88100
C278        C  0.18385205  0.68819767  0.33174426     0.88000
C279        C  0.14177144  0.60955087  0.25517386     0.88000
C280        C  0.10746722  0.64689556  0.41194550     0.88200
O281        O  0.47837779  0.91023692  0.68728151    -0.74100
O282        O  0.47645889  0.82130513  0.68654953    -0.74100
O283        O  0.50417192  0.87887445  0.74618296    -0.74200
O284        O  0.45101703  0.85334830  0.62819145    -0.74200
O285        O  0.00156222  0.87731901  0.58646534    -0.74200
O286        O  0.05477091  0.90392895  0.70468877    -0.74100
O287        O  0.02751975  0.84601604  0.64582724    -0.74100
O288        O  0.02888094  0.93472506  0.64538548    -0.74200
Ni289      Ni  0.47575411  0.86497790  0.68861047     1.25400
Ni290      Ni  0.02998022  0.89124318  0.64409418     1.25400
C291        C  0.00376367  0.93707658  0.66607780     0.88100
C292        C  0.00161652  0.81895572  0.66593947     0.88000
C293        C  0.03824734  0.89649418  0.74510176     0.88000
C294        C  0.46755564  0.86190733  0.58777385     0.88200
O295        O  0.47569105  0.57049036  0.64510595    -0.74100
O296        O  0.47628982  0.65887382  0.64702080    -0.74100
O297        O  0.50406827  0.62865847  0.58804336    -0.74200
O298        O  0.44796090  0.59998780  0.70375252    -0.74200
O299        O  0.99749585  0.62533333  0.74780112    -0.74200
O300        O  0.05352401  0.65202462  0.63226332    -0.74100
O301        O  0.02640475  0.68346284  0.68983365    -0.74100
O302        O  0.02482267  0.59478397  0.69003781    -0.74200
Ni303      Ni  0.47423709  0.61379961  0.64437989     1.25400
Ni304      Ni  0.02728651  0.63990402  0.69157936     1.25400
C305        C  0.00010876  0.56803736  0.66753800     0.88100
C306        C  0.00165558  0.68587637  0.66834568     0.88000
C307        C  0.03800104  0.64378082  0.59108697     0.88000
C308        C  0.46354084  0.60699920  0.74489658     0.88200
O309        O  0.43099060  0.52432656  0.01781412    -0.74700
O310        O  0.34242050  0.52319255  0.01972357    -0.74100
O311        O  0.37455718  0.49767100  0.07783354    -0.74200
O312        O  0.39952046  0.55004598  0.95976288    -0.74200
O313        O  0.37432034  0.99883710  0.91725995    -0.74200
O314        O  0.34999209  0.94672025  0.03627544    -0.74100
O315        O  0.31722938  0.97167457  0.97774147    -0.74100
O316        O  0.40613307  0.97345077  0.97608890    -0.74200
Ni317      Ni  0.38762464  0.52559491  0.02022622     1.25400
Ni318      Ni  0.36089160  0.97086962  0.97528733     1.25400
C319        C  0.43288132  0.49893030  0.99704221     0.88100
C320        C  0.31501958  0.49746809  0.99964650     0.88000
C321        C  0.35937495  0.96374967  0.07649364     0.88000
C322        C  0.39193702  0.53352378  0.91921165     0.88200
O323        O  0.06811521  0.97545333  0.02463616    -0.74100
O324        O  0.15489427  0.97288616  0.02490687    -0.74100
O325        O  0.12525604  0.00165574  0.08341839    -0.74200
O326        O  0.09694651  0.94682703  0.96662629    -0.74200
O327        O  0.12446832  0.49774117  0.92249917    -0.74200
O328        O  0.15026494  0.55237637  0.03982687    -0.74100
O329        O  0.18162808  0.52496484  0.98286644    -0.74100
O330        O  0.09398543  0.52559653  0.97990284    -0.74200
Ni331      Ni  0.11055004  0.97245170  0.02648430     1.25400
Ni332      Ni  0.13865415  0.52693197  0.97969766     1.25400
C333        C  0.06670318  0.50093517  0.00128966     0.88100
C334        C  0.18291418  0.49944278  0.00374067     0.88000
C335        C  0.14107887  0.53626914  0.08045176     0.88000
C336        C  0.10483263  0.96275987  0.92590473     0.88200
C337        C  0.99888172  0.53161456  0.99908281    -0.11900
C338        C  0.46690848  0.49901498  0.99754297     0.05100
C339        C  0.46825008  0.96715313  0.99933125    -0.07200
C340        C  0.00095571  0.96834784  0.00136646    -0.08000
C341        C  0.03280613  0.50100653  0.00025720    -0.02500
C342        C  0.03167174  0.53285653  0.00020559     0.04300
N343        N  0.06346787  0.56661505  0.00337389     0.66800
H344        H  0.99846395  0.55626917  0.99946395     0.15700
H345        H  0.00125924  0.94367610  0.00294198     0.15400
N346        N  0.43640380  0.93333863  0.00037770     0.74500
O347        O  0.07465980  0.58636132  0.96675798    -0.38900
O348        O  0.07762211  0.57858278  0.04401205    -0.38900
O349        O  0.42838762  0.91253058  0.96470688    -0.39600
O350        O  0.41916032  0.92232002  0.03923839    -0.39700
C351        C  0.21609901  0.96674165  0.98937392    -0.11900
C352        C  0.21655745  0.49894400  0.00399593     0.05100
C353        C  0.24911598  0.52976697  0.01430713    -0.07200
C354        C  0.28069452  0.52861289  0.01297939    -0.08000
C355        C  0.28066808  0.49711254  0.00111723    -0.02500
C356        C  0.24784346  0.96584859  0.98669419     0.04300
N357        N  0.24645465  0.93408206  0.96976906     0.66800
H358        H  0.19136348  0.94345047  0.97842485     0.15700
H359        H  0.30548188  0.55274638  0.02119220     0.15400
N360        N  0.25033321  0.56207369  0.02807659     0.74500
O361        O  0.24198337  0.91027030  0.99941665    -0.38900
O362        O  0.24445635  0.92763976  0.92504167    -0.38900
O363        O  0.24705805  0.56789125  0.07195252    -0.39600
O364        O  0.25952710  0.58664899  0.99768680    -0.39700
C365        C  0.41069892  0.55845732  0.78620670    -0.11900
C366        C  0.44223060  0.59143142  0.78931003     0.05100
C367        C  0.45459361  0.60671414  0.83532312    -0.07200
C368        C  0.43654957  0.58823542  0.87688514    -0.08000
C369        C  0.40622577  0.55425955  0.87398261    -0.02500
C370        C  0.39274671  0.53981269  0.82783263     0.04300
N371        N  0.36117138  0.50607456  0.82251840     0.66800
H372        H  0.40058662  0.54622547  0.75110365     0.15700
H373        H  0.44743056  0.60010609  0.91190400     0.15400
N374        N  0.48576039  0.64077457  0.84056329     0.74500
O375        O  0.33119030  0.50372648  0.82725921    -0.38900
O376        O  0.36309624  0.47990943  0.80632343    -0.38900
O377        O  0.98308246  0.66834993  0.84048070    -0.39600
O378        O  0.51467202  0.64291666  0.85306028    -0.39700
C379        C  0.10895445  0.95434599  0.83744635    -0.11900
C380        C  0.08999645  0.94206584  0.88076811     0.05100
C381        C  0.05556990  0.91195036  0.87943384    -0.07200
C382        C  0.04003086  0.89644624  0.83508336    -0.08000
C383        C  0.05823431  0.90976311  0.79133721    -0.02500
C384        C  0.09381805  0.93812477  0.79311126     0.04300
N385        N  0.11463109  0.95161429  0.75027008     0.66800
H386        H  0.13582350  0.97719324  0.83790136     0.15700
H387        H  0.01274559  0.87436249  0.83494294     0.15400
N388        N  0.03481354  0.89857035  0.92234004     0.74500
O389        O  0.12296744  0.98218694  0.73547060    -0.38900
O390        O  0.13004762  0.93602491  0.73279083    -0.38900
O391        O  0.01200841  0.90741682  0.93267033    -0.39600
O392        O  0.03471433  0.87334245  0.94474628    -0.39700
C393        C  0.46986130  0.72011489  0.66494103    -0.11900
C394        C  0.00212753  0.72018437  0.66816017     0.05100
C395        C  0.03418148  0.75307095  0.67045899    -0.07200
C396        C  0.03340350  0.78483442  0.66894353    -0.08000
C397        C  0.00114388  0.78471837  0.66588762    -0.02500
C398        C  0.46907001  0.75189922  0.66388215     0.04300
N399        N  0.43561071  0.75039143  0.65875706     0.66800
H400        H  0.44486135  0.69504328  0.66299427     0.15700
H401        H  0.05839087  0.80993430  0.67074817     0.15400
N402        N  0.06781542  0.75474293  0.67298008     0.74500
O403        O  0.42730918  0.75815540  0.61886431    -0.38900
O404        O  0.41263815  0.73696224  0.69177362    -0.38900
O405        O  0.08480367  0.75761640  0.63466664    -0.39600
O406        O  0.08297222  0.75920613  0.71331013    -0.39700
C407        C  0.47059185  0.96981038  0.66419878    -0.11900
C408        C  0.00345513  0.97091271  0.66505165     0.05100
C409        C  0.03515094  0.50418584  0.67008271    -0.07200
C410        C  0.03310830  0.53525496  0.67180438    -0.08000
C411        C  0.00047218  0.53422326  0.66694916    -0.02500
C412        C  0.46916034  0.50104165  0.66147145     0.04300
N413        N  0.43473094  0.99853342  0.66460965     0.66800
H414        H  0.44609723  0.94452278  0.66324709     0.15700
H415        H  0.05737984  0.56040582  0.67646930     0.15400
N416        N  0.06904722  0.50682311  0.67604278     0.74500
O417        O  0.41780159  0.99304604  0.62557979    -0.38900
O418        O  0.41848977  0.49648112  0.69716525    -0.38900
O419        O  0.08267839  0.00369640  0.62895028    -0.39600
O420        O  0.08560182  0.51869830  0.71529628    -0.39700
C421        C  0.10649398  0.64794497  0.50191882    -0.11900
C422        C  0.09385843  0.65350538  0.45802853     0.05100
C423        C  0.06530850  0.66046169  0.45933690    -0.07200
C424        C  0.04778989  0.65780371  0.50314592    -0.08000
C425        C  0.05926312  0.65017016  0.54645935    -0.02500
C426        C  0.08973217  0.64647472  0.54577474     0.04300
N427        N  0.10217127  0.63800263  0.58860699     0.66800
H428        H  0.12846057  0.64299404  0.50214549     0.15700
H429        H  0.02515211  0.66169971  0.50329588     0.15400
N430        N  0.05336505  0.66972294  0.41663157     0.74500
O431        O  0.08755659  0.60621171  0.60257880    -0.38900
O432        O  0.13112093  0.66089831  0.60747054    -0.38900
O433        O  0.02167779  0.65071394  0.40259216    -0.39600
O434        O  0.07276983  0.69957877  0.39733372    -0.39700
C435        C  0.15007511  0.59091257  0.12278873    -0.11900
C436        C  0.14679250  0.55710072  0.12557831     0.05100
C437        C  0.14551935  0.54268217  0.17162512    -0.07200
C438        C  0.14607633  0.56132319  0.21327062    -0.08000
C439        C  0.14735676  0.59416533  0.21038210    -0.02500
C440        C  0.15019160  0.60936364  0.16454884     0.04300
N441        N  0.15300716  0.64338200  0.15973701     0.66800
H442        H  0.15121261  0.60261743  0.08796882     0.15700
H443        H  0.14376509  0.54911031  0.24805896     0.15400
N444        N  0.14195343  0.00819800  0.17842002     0.74500
O445        O  0.18253929  0.67115618  0.16674538    -0.38900
O446        O  0.12760467  0.64574668  0.14183732    -0.38900
O447        O  0.16955183  0.00585026  0.18333509    -0.39600
O448        O  0.11192964  0.98158897  0.18721880    -0.39700
C449        C  0.44317890  0.85489729  0.45462581    -0.11900
C450        C  0.41098944  0.85512998  0.45682774     0.05100
C451        C  0.39599141  0.85400765  0.50252152    -0.07200
C452        C  0.41390827  0.85414119  0.54459611    -0.08000
C453        C  0.44710003  0.85594005  0.54240234    -0.02500
C454        C  0.46133847  0.85553156  0.49666744     0.04300
N455        N  0.99455260  0.85646389  0.49214286     0.66800
H456        H  0.45525206  0.85578168  0.41996748     0.15700
H457        H  0.40239742  0.85444287  0.57925274     0.15400
N458        N  0.36293126  0.85339980  0.50695919     0.74500
O459        O  0.99577669  0.82825364  0.49677298    -0.38900
O460        O  0.02152338  0.88421461  0.47710281    -0.38900
O461        O  0.33429164  0.82402611  0.50780135    -0.39600
O462        O  0.36272903  0.88146110  0.51817043    -0.39700
C463        C  0.03547200  0.50427369  0.33270057    -0.11900
C464        C  0.03422524  0.53586174  0.33570273     0.05100
C465        C  0.00097975  0.53396542  0.33927087    -0.07200
C466        C  0.46981214  0.50094787  0.33889036    -0.08000
C467        C  0.47046586  0.96969719  0.33498719    -0.02500
C468        C  0.00386443  0.97163045  0.33436170     0.04300
N469        N  0.00661823  0.94025050  0.33576637     0.66800
H470        H  0.06099466  0.50529280  0.33047881     0.15700
H471        H  0.44364070  0.00032187  0.33717036     0.15400
N472        N  0.49849866  0.56520340  0.34629478     0.74500
O473        O  0.01448408  0.92941547  0.29790680    -0.38900
O474        O  0.50656161  0.92665211  0.37593143    -0.38900
O475        O  0.99124462  0.57867830  0.31098322    -0.39600
O476        O  0.49678790  0.57505764  0.38866314    -0.39700
C477        C  0.25300106  0.78651220  0.33005991    -0.11900
C478        C  0.28469528  0.78529534  0.33010149     0.05100
C479        C  0.28281119  0.75195837  0.32958696    -0.07200
C480        C  0.24972841  0.72082975  0.33012043    -0.08000
C481        C  0.21804730  0.72200444  0.33061101    -0.02500
C482        C  0.21984242  0.75531833  0.33015572     0.04300
N483        N  0.18837028  0.75797108  0.33193758     0.66800
H484        H  0.25393733  0.81202285  0.33029453     0.15700
H485        H  0.24886218  0.69535111  0.33012603     0.15400
N486        N  0.31421438  0.74921577  0.33044074     0.74500
O487        O  0.17180672  0.75283986  0.37126807    -0.38900
O488        O  0.17983921  0.76992461  0.29611563    -0.38900
O489        O  0.32738601  0.74784688  0.37037009    -0.39600
O490        O  0.32556633  0.74286947  0.29184840    -0.39700
C491        C  0.35196874  0.91070972  0.12096471    -0.11900
C492        C  0.35441473  0.94418917  0.12237206     0.05100
C493        C  0.35579574  0.95977250  0.16785214    -0.07200
C494        C  0.35651392  0.94275280  0.21023875    -0.08000
C495        C  0.35583332  0.91015452  0.20870112    -0.02500
C496        C  0.35257487  0.89362403  0.16348141     0.04300
N497        N  0.34966530  0.85944202  0.16012651     0.66800
H498        H  0.35058010  0.89804871  0.08654230     0.15700
H499        H  0.35888762  0.95587020  0.24460655     0.15400
N500        N  0.35292721  0.49105843  0.17174808     0.74500
O501        O  0.32171717  0.83230067  0.17434134    -0.38900
O502        O  0.37308144  0.85582887  0.13798369    -0.38900
O503        O  0.32401482  0.49074317  0.16561706    -0.39600
O504        O  0.37966773  0.51875375  0.18767519    -0.39700
O505        O  0.93502515  0.40815323  0.31245672    -0.74100
O506        O  0.84644006  0.32046900  0.31121513    -0.74100
O507        O  0.87798978  0.37793422  0.25256876    -0.74200
O508        O  0.90393329  0.35122602  0.37068171    -0.74200
O509        O  0.87806316  0.37599221  0.41257584    -0.74200
O510        O  0.85339149  0.40397945  0.29445341    -0.74100
O511        O  0.82107754  0.34621442  0.35210760    -0.74100
O512        O  0.90970586  0.43332059  0.35476309    -0.74200
Ni513      Ni  0.89160825  0.36340660  0.31020446     1.25400
Ni514      Ni  0.86455390  0.39064692  0.35497812     1.25400
C515        C  0.93700300  0.43516846  0.33418985     0.88100
C516        C  0.81911249  0.31892680  0.33128513     0.88000
C517        C  0.86211901  0.39607089  0.25397113     0.88000
C518        C  0.89625463  0.36018361  0.41114760     0.88200
O519        O  0.56862563  0.09750495  0.31318417    -0.74100
O520        O  0.65621065  0.18619529  0.31131146    -0.74100
O521        O  0.62546031  0.12765353  0.25325299    -0.74200
O522        O  0.59899791  0.15546590  0.37097790    -0.74200
O523        O  0.62553614  0.13189240  0.41310838    -0.74200
O524        O  0.65071379  0.10289285  0.29595869    -0.74100
O525        O  0.68218126  0.16158529  0.35277408    -0.74100
O526        O  0.59457059  0.07342963  0.35588457    -0.74200
Ni527      Ni  0.61150504  0.14268976  0.31062803     1.25400
Ni528      Ni  0.63926909  0.11674374  0.35596242     1.25400
C529        C  0.56716906  0.07085030  0.33483976     0.88100
C530        C  0.68368482  0.18844422  0.33172741     0.88000
C531        C  0.64147681  0.10966858  0.25530242     0.88000
C532        C  0.60725295  0.14760719  0.41161919     0.88200
O533        O  0.97894846  0.41038556  0.68663907    -0.74100
O534        O  0.97740937  0.32172549  0.68581696    -0.74100
O535        O  0.00525278  0.37935579  0.74520831    -0.74200
O536        O  0.95156094  0.35342367  0.62766326    -0.74200
O537        O  0.50195544  0.37756082  0.58557438    -0.74200
O538        O  0.55568152  0.40444059  0.70333099    -0.74100
O539        O  0.52825270  0.34640792  0.64460073    -0.74100
O540        O  0.52938685  0.43508271  0.64450347    -0.74200
Ni541      Ni  0.97655453  0.36526729  0.68789767     1.25400
Ni542      Ni  0.53061509  0.39163011  0.64297371     1.25400
C543        C  0.50425746  0.43728059  0.66546927     0.88100
C544        C  0.50245509  0.31936060  0.66492610     0.88000
C545        C  0.53932696  0.39702354  0.74386000     0.88000
C546        C  0.96794258  0.36192944  0.58712642     0.88200
O547        O  0.97565212  0.07056362  0.64461616    -0.74100
O548        O  0.97636344  0.15899906  0.64668182    -0.74100
O549        O  0.00424282  0.12894710  0.58780051    -0.74200
O550        O  0.94780144  0.09993714  0.70314614    -0.74200
O551        O  0.49721614  0.12513056  0.74747160    -0.74200
O552        O  0.55359983  0.15225430  0.63221896    -0.74100
O553        O  0.52636139  0.18346957  0.68977335    -0.74100
O554        O  0.52475972  0.09478701  0.68964642    -0.74200
Ni555      Ni  0.97425442  0.11390743  0.64395456     1.25400
Ni556      Ni  0.52719989  0.13989721  0.69140140     1.25400
C557        C  0.50003824  0.06808797  0.66708985     0.88100
C558        C  0.50174915  0.18596711  0.66803545     0.88000
C559        C  0.53817841  0.14422558  0.59097133     0.88000
C560        C  0.96326740  0.10679516  0.74435284     0.88200
O561        O  0.93118140  0.02446646  0.01724364    -0.74700
O562        O  0.84221072  0.02252841  0.01893825    -0.74100
O563        O  0.87485132  0.99770655  0.07729959    -0.74200
O564        O  0.89925059  0.04955170  0.95889717    -0.74200
O565        O  0.87418001  0.49947844  0.91777026    -0.74200
O566        O  0.84962011  0.44687183  0.03632737    -0.74100
O567        O  0.81715946  0.47240371  0.97830392    -0.74100
O568        O  0.90575402  0.47357843  0.97606136    -0.74200
Ni569      Ni  0.88761171  0.02535350  0.01950732     1.25400
Ni570      Ni  0.86063950  0.47128767  0.97556453     1.25400
C571        C  0.93317770  0.99897705  0.99697017     0.88100
C572        C  0.81487460  0.99666914  0.99892387     0.88000
C573        C  0.85894333  0.46370439  0.07668734     0.88000
C574        C  0.89181120  0.03289697  0.91846372     0.88200
O575        O  0.56817245  0.47580382  0.02309879    -0.74100
O576        O  0.65537688  0.47413676  0.02386027    -0.74100
O577        O  0.62518258  0.50229777  0.08221168    -0.74200
O578        O  0.59766493  0.44778569  0.96518410    -0.74200
O579        O  0.62409395  0.99668414  0.92375655    -0.74200
O580        O  0.65040491  0.05161778  0.04079152    -0.74100
O581        O  0.68135671  0.02371639  0.98389618    -0.74100
O582        O  0.59408968  0.02504077  0.98103911    -0.74200
Ni583      Ni  0.61084428  0.47325286  0.02515441     1.25400
Ni584      Ni  0.63857122  0.02601818  0.98079534     1.25400
C585        C  0.56677828  0.00059453  0.00262826     0.88100
C586        C  0.68246144  0.99806946  0.00466728     0.88000
C587        C  0.64116675  0.03562525  0.08149009     0.88000
C588        C  0.60551020  0.46378658  0.92451453     0.88200
C589        C  0.49919999  0.03160325  0.99843411    -0.11900
C590        C  0.96717390  0.99904433  0.99806427     0.05100
C591        C  0.96811510  0.46716983  0.99708842    -0.07200
C592        C  0.50087852  0.46844918  0.99884444    -0.08000
C593        C  0.53296359  0.00084764  0.00146185    -0.02500
C594        C  0.53194719  0.03275222  0.99986315     0.04300
N595        N  0.56382723  0.06651366  0.00160302     0.66800
H596        H  0.49884888  0.05629512  0.99755472     0.15700
H597        H  0.50130017  0.44383453  0.99915237     0.15400
N598        N  0.93634901  0.43327826  0.99655422     0.74500
O599        O  0.57513007  0.08499102  0.96385516    -0.38900
O600        O  0.57790078  0.07984016  0.04182750    -0.38900
O601        O  0.92836490  0.41381840  0.95941953    -0.39600
O602        O  0.91919809  0.42076300  0.03516475    -0.39700
C603        C  0.71622777  0.46734323  0.99275527    -0.11900
C604        C  0.71600476  0.99742811  0.00469894     0.05100
C605        C  0.74816580  0.02749553  0.01846344    -0.07200
C606        C  0.77983484  0.02655059  0.01657742    -0.08000
C607        C  0.78034690  0.99605269  0.00052874    -0.02500
C608        C  0.74782273  0.46616026  0.99091922     0.04300
N609        N  0.74590524  0.43319995  0.97923680     0.66800
H610        H  0.69120547  0.44340155  0.98467401     0.15700
H611        H  0.80426775  0.05009822  0.02766180     0.15400
N612        N  0.74883342  0.05876248  0.03610855     0.74500
O613        O  0.74475759  0.41302950  0.01262313    -0.38900
O614        O  0.74036636  0.42208438  0.93617152    -0.38900
O615        O  0.74569952  0.06237919  0.08078256    -0.39600
O616        O  0.75736404  0.08462477  0.00819276    -0.39700
C617        C  0.91086813  0.05756737  0.78538271    -0.11900
C618        C  0.94183115  0.09099981  0.78857098     0.05100
C619        C  0.95361977  0.10659071  0.83453676    -0.07200
C620        C  0.93563879  0.08798348  0.87605320    -0.08000
C621        C  0.90595032  0.05356511  0.87313755    -0.02500
C622        C  0.89299221  0.03877177  0.82695846     0.04300
N623        N  0.86207366  0.00453182  0.82156362     0.66800
H624        H  0.90119314  0.04512917  0.75026367     0.15700
H625        H  0.94609168  0.10016372  0.91107405     0.15400
N626        N  0.98408678  0.14115663  0.83975328     0.74500
O627        O  0.83164580  0.00120457  0.82582756    -0.38900
O628        O  0.86501812  0.97884408  0.80579644    -0.38900
O629        O  0.48035574  0.16811922  0.83934030    -0.39600
O630        O  0.01337728  0.14433925  0.85261230    -0.39700
C631        C  0.60978430  0.45566273  0.83594051    -0.11900
C632        C  0.59094455  0.44307578  0.87930966     0.05100
C633        C  0.55688118  0.41243813  0.87803382    -0.07200
C634        C  0.54145533  0.39679017  0.83372299    -0.08000
C635        C  0.55947164  0.41038669  0.78994824    -0.02500
C636        C  0.59485072  0.43918161  0.79162177     0.04300
N637        N  0.61572540  0.45260868  0.74877746     0.66800
H638        H  0.63645373  0.47882432  0.83638736     0.15700
H639        H  0.51437643  0.37432458  0.83364069     0.15400
N640        N  0.53633608  0.39854603  0.92100089     0.74500
O641        O  0.62610812  0.48401818  0.73559830    -0.38900
O642        O  0.62935182  0.43575322  0.72981045    -0.38900
O643        O  0.51300154  0.40659859  0.93166109    -0.39600
O644        O  0.53699064  0.37359323  0.94310883    -0.39700
C645        C  0.97025364  0.22044933  0.66508577    -0.11900
C646        C  0.50244815  0.22035548  0.66751210     0.05100
C647        C  0.53465139  0.25313983  0.66863943    -0.07200
C648        C  0.53407365  0.28500783  0.66693856    -0.08000
C649        C  0.50186687  0.28506557  0.66481794    -0.02500
C650        C  0.96966118  0.25231753  0.66385794     0.04300
N651        N  0.93621070  0.25094643  0.65977486     0.66800
H652        H  0.94515123  0.19544045  0.66400526     0.15700
H653        H  0.55916426  0.31003634  0.66787938     0.15400
N654        N  0.56819924  0.25456430  0.67007856     0.74500
O655        O  0.92677641  0.25727011  0.61972159    -0.38900
O656        O  0.91428661  0.23900541  0.69419127    -0.38900
O657        O  0.58416492  0.25630715  0.63118585    -0.39600
O658        O  0.58427468  0.25976583  0.70980009    -0.39700
C659        C  0.97108218  0.46985748  0.66079879    -0.11900
C660        C  0.50384094  0.47100970  0.66483995     0.05100
C661        C  0.53503085  0.00423026  0.66642458    -0.07200
C662        C  0.53310753  0.03537011  0.66815106    -0.08000
C663        C  0.50033476  0.03428069  0.66651622    -0.02500
C664        C  0.96879847  0.00106263  0.66438002     0.04300
N665        N  0.93507954  0.49837868  0.65882306     0.66800
H666        H  0.94677517  0.44456985  0.65715057     0.15700
H667        H  0.55753727  0.06062310  0.67003249     0.15400
N668        N  0.56925924  0.00710075  0.66767148     0.74500
O669        O  0.91943787  0.49262538  0.61866475    -0.38900
O670        O  0.91935532  0.99620155  0.70425810    -0.38900
O671        O  0.58562502  0.50549159  0.63936354    -0.39600
O672        O  0.58911373  0.02147604  0.70375959    -0.39700
C673        C  0.60692461  0.14938662  0.50154237    -0.11900
C674        C  0.59386779  0.15446984  0.45769796     0.05100
C675        C  0.56512791  0.16111323  0.45915085    -0.07200
C676        C  0.54771525  0.15839173  0.50307349    -0.08000
C677        C  0.55953914  0.15109000  0.54634623    -0.02500
C678        C  0.59034841  0.14799557  0.54551891     0.04300
N679        N  0.60338864  0.14025526  0.58836978     0.66800
H680        H  0.62913053  0.14480914  0.50166567     0.15700
H681        H  0.52485471  0.16191827  0.50333119     0.15400
N682        N  0.55284652  0.17003669  0.41647704     0.74500
O683        O  0.59101529  0.10840670  0.60106461    -0.38900
O684        O  0.63114036  0.16433989  0.60836712    -0.38900
O685        O  0.52106006  0.15089424  0.40291265    -0.39600
O686        O  0.57204480  0.19979100  0.39680720    -0.39700
C687        C  0.65012410  0.09045211  0.12324775    -0.11900
C688        C  0.64673594  0.05660442  0.12644802     0.05100
C689        C  0.64516118  0.04230977  0.17267815    -0.07200
C690        C  0.64565606  0.06115804  0.21406195    -0.08000
C691        C  0.64707505  0.09405169  0.21074564    -0.02500
C692        C  0.65011612  0.10908555  0.16474819     0.04300
N693        N  0.65302394  0.14311667  0.15950252     0.66800
H694        H  0.65144591  0.10205334  0.08828285     0.15700
H695        H  0.64313719  0.04904028  0.24898263     0.15400
N696        N  0.64265739  0.50868467  0.17690936     0.74500
O697        O  0.68240661  0.17088011  0.16734782    -0.38900
O698        O  0.62793400  0.14552525  0.14058962    -0.38900
O699        O  0.67045239  0.50646566  0.17957495    -0.39600
O700        O  0.61298072  0.48201960  0.18700842    -0.39700
C701        C  0.94324758  0.35444683  0.45410711    -0.11900
C702        C  0.91105891  0.35467174  0.45639072     0.05100
C703        C  0.89606069  0.35347399  0.50210339    -0.07200
C704        C  0.91407226  0.35374102  0.54414403    -0.08000
C705        C  0.94730059  0.35563231  0.54186824    -0.02500
C706        C  0.96143723  0.35507046  0.49611149     0.04300
N707        N  0.49452915  0.35574374  0.49154149     0.66800
H708        H  0.95526646  0.35529315  0.41941551     0.15700
H709        H  0.90260665  0.35407244  0.57882736     0.15400
N710        N  0.86288455  0.35262049  0.50657887     0.74500
O711        O  0.49580399  0.32773471  0.49827360    -0.38900
O712        O  0.52126852  0.38286258  0.47467404    -0.38900
O713        O  0.83434926  0.32314541  0.50720336    -0.39600
O714        O  0.86246172  0.38054213  0.51795905    -0.39700
C715        C  0.53501701  0.00481212  0.33448198    -0.11900
C716        C  0.53364155  0.03639268  0.33505969     0.05100
C717        C  0.50024438  0.03438163  0.33619092    -0.07200
C718        C  0.96916263  0.00127169  0.33630651    -0.08000
C719        C  0.97090231  0.46931792  0.33508633    -0.02500
C720        C  0.50423609  0.47114507  0.33241747     0.04300
N721        N  0.50689063  0.43969222  0.33153530     0.66800
H722        H  0.56058972  0.00586221  0.33402775     0.15700
H723        H  0.94440780  0.50013144  0.34160006     0.15400
N724        N  0.99740925  0.06563795  0.33980047     0.74500
O725        O  0.51458279  0.42982053  0.29265489    -0.38900
O726        O  0.00690674  0.42501108  0.37070117    -0.38900
O727        O  0.49292754  0.07906440  0.30207172    -0.39600
O728        O  0.99209998  0.07523365  0.38056367    -0.39700
C729        C  0.75300665  0.28668327  0.33026052    -0.11900
C730        C  0.78464612  0.28536782  0.33030152     0.05100
C731        C  0.78267931  0.25199499  0.32989480    -0.07200
C732        C  0.74955695  0.22091386  0.33028498    -0.08000
C733        C  0.71792972  0.22218634  0.33071687    -0.02500
C734        C  0.71981247  0.25554099  0.33036285     0.04300
N735        N  0.68839300  0.25828130  0.33230004     0.66800
H736        H  0.75401505  0.31222726  0.33048540     0.15700
H737        H  0.74861504  0.19540016  0.33032795     0.15400
N738        N  0.81403484  0.24917578  0.33112879     0.74500
O739        O  0.67206252  0.25343500  0.37177811    -0.38900
O740        O  0.67975052  0.27012184  0.29646374    -0.38900
O741        O  0.82791670  0.24938913  0.37118289    -0.39600
O742        O  0.82476788  0.24141179  0.29309655    -0.39700
C743        C  0.85284835  0.41109728  0.12071102    -0.11900
C744        C  0.85383779  0.44388558  0.12232002     0.05100
C745        C  0.85378256  0.45870860  0.16783635    -0.07200
C746        C  0.85477647  0.44178528  0.21020050    -0.08000
C747        C  0.85564387  0.40994552  0.20854082    -0.02500
C748        C  0.85359574  0.39402375  0.16315105     0.04300
N749        N  0.85214613  0.36050618  0.15950239     0.66800
H750        H  0.85253270  0.39902388  0.08619412     0.15700
H751        H  0.85605049  0.45437401  0.24465361     0.15400
N752        N  0.85691178  0.99310075  0.17174985     0.74500
O753        O  0.82480212  0.33268982  0.17356714    -0.38900
O754        O  0.87623107  0.35809793  0.13724646    -0.38900
O755        O  0.82864497  0.99431398  0.16748420    -0.39600
O756        O  0.88492639  0.02025864  0.18602663    -0.39700
O757        O  0.93491269  0.90846313  0.31278816    -0.74100
O758        O  0.84654822  0.82056865  0.31140835    -0.74100
O759        O  0.87798151  0.87800398  0.25272674    -0.74200
O760        O  0.90393939  0.85157274  0.37109102    -0.74200
O761        O  0.87785178  0.87620227  0.41279050    -0.74200
O762        O  0.85317836  0.90392399  0.29448384    -0.74100
O763        O  0.82094294  0.84614487  0.35212050    -0.74100
O764        O  0.90935657  0.93351499  0.35486226    -0.74200
Ni765      Ni  0.89161591  0.86361371  0.31049337     1.25400
Ni766      Ni  0.86431239  0.89070022  0.35507213     1.25400
C767        C  0.93670991  0.93545823  0.33433952     0.88100
C768        C  0.81911858  0.81891448  0.33130031     0.88000
C769        C  0.86206610  0.89609918  0.25407182     0.88000
C770        C  0.89617073  0.86052537  0.41149870     0.88200
O771        O  0.56892428  0.59689443  0.31368782    -0.74100
O772        O  0.65627180  0.68582650  0.31148908    -0.74100
O773        O  0.62555743  0.62734415  0.25340989    -0.74200
O774        O  0.59919796  0.65482229  0.37138396    -0.74200
O775        O  0.62591579  0.63133694  0.41329321    -0.74200
O776        O  0.65120280  0.60278732  0.29570596    -0.74100
O777        O  0.68250850  0.66139438  0.35273889    -0.74100
O778        O  0.59522505  0.57294217  0.35592028    -0.74200
Ni779      Ni  0.61166216  0.64219661  0.31095039     1.25400
Ni780      Ni  0.63975326  0.61641968  0.35593955     1.25400
C781        C  0.56769560  0.57029392  0.33521141     0.88100
C782        C  0.68385170  0.68819658  0.33174626     0.88000
C783        C  0.64177073  0.60954965  0.25517631     0.88000
C784        C  0.60746713  0.64689479  0.41194808     0.88200
O785        O  0.97837744  0.91023571  0.68728100    -0.74100
O786        O  0.97645786  0.82130356  0.68654988    -0.74100
O787        O  0.00417115  0.87887315  0.74618280    -0.74200
O788        O  0.95101630  0.85334681  0.62819142    -0.74200
O789        O  0.50156296  0.87732086  0.58646539    -0.74200
O790        O  0.55477159  0.90393061  0.70468874    -0.74100
O791        O  0.52752076  0.84601791  0.64582683    -0.74100
O792        O  0.52888129  0.93472665  0.64538594    -0.74200
Ni793      Ni  0.97575338  0.86497652  0.68861038     1.25400
Ni794      Ni  0.52998093  0.89124495  0.64409422     1.25400
C795        C  0.50376392  0.93707791  0.66607838     0.88100
C796        C  0.50161757  0.81895746  0.66593890     0.88000
C797        C  0.53824812  0.89649562  0.74510180     0.88000
C798        C  0.96755490  0.86190565  0.58777382     0.88200
O799        O  0.97569231  0.57048964  0.64510450    -0.74100
O800        O  0.97629008  0.65887261  0.64702017    -0.74100
O801        O  0.00406881  0.62865789  0.58804198    -0.74200
O802        O  0.94796196  0.59998654  0.70375156    -0.74200
O803        O  0.49749463  0.62533446  0.74780240    -0.74200
O804        O  0.55352326  0.65202472  0.63226514    -0.74100
O805        O  0.52640439  0.68346381  0.68983450    -0.74100
O806        O  0.52482105  0.59478433  0.69003993    -0.74200
Ni807      Ni  0.97423788  0.61379866  0.64437877     1.25400
Ni808      Ni  0.52728550  0.63990465  0.69158090     1.25400
C809        C  0.50010726  0.56803785  0.66753976     0.88100
C810        C  0.50165548  0.68587756  0.66834612     0.88000
C811        C  0.53800045  0.64378094  0.59108869     0.88000
C812        C  0.96354206  0.60699793  0.74489549     0.88200
O813        O  0.93099088  0.52432694  0.01781403    -0.74700
O814        O  0.84242088  0.52319323  0.01972269    -0.74100
O815        O  0.87455751  0.49767198  0.07783351    -0.74200
O816        O  0.89952092  0.55004603  0.95976197    -0.74200
O817        O  0.87432054  0.99883682  0.91726050    -0.74200
O818        O  0.84999194  0.94672020  0.03627607    -0.74100
O819        O  0.81722948  0.97167465  0.97774175    -0.74100
O820        O  0.90613292  0.97345043  0.97608966    -0.74200
Ni821      Ni  0.88762499  0.52559545  0.02022573     1.25400
Ni822      Ni  0.86089157  0.97086947  0.97528791     1.25400
C823        C  0.93288146  0.49893043  0.99704267     0.88100
C824        C  0.81501994  0.49746877  0.99964562     0.88000
C825        C  0.85937494  0.96374966  0.07649422     0.88000
C826        C  0.89193765  0.53352348  0.91921101     0.88200
O827        O  0.56811552  0.97545397  0.02463668    -0.74100
O828        O  0.65489460  0.97288671  0.02490727    -0.74100
O829        O  0.62525640  0.00165614  0.08341915    -0.74200
O830        O  0.59694689  0.94682782  0.96662664    -0.74200
O831        O  0.62446894  0.49774238  0.92250007    -0.74200
O832        O  0.65026488  0.55237657  0.03982865    -0.74100
O833        O  0.68162847  0.52496567  0.98286793    -0.74100
O834        O  0.59398571  0.52559717  0.97990401    -0.74200
Ni835      Ni  0.61055037  0.97245230  0.02648482     1.25400
Ni836      Ni  0.63865448  0.52693270  0.97969904     1.25400
C837        C  0.56670333  0.50093556  0.00129028     0.88100
C838        C  0.68291443  0.49944336  0.00374161     0.88000
C839        C  0.64107866  0.53626899  0.08045329     0.88000
C840        C  0.60483307  0.96276081  0.92590518     0.88200
C841        C  0.49888158  0.53161455  0.99908328    -0.11900
C842        C  0.96690855  0.49901500  0.99754347     0.05100
C843        C  0.96824985  0.96715270  0.99933148    -0.07200
C844        C  0.50095599  0.96834833  0.00136629    -0.08000
C845        C  0.53280618  0.50100675  0.00025734    -0.02500
C846        C  0.53167165  0.53285667  0.00020634     0.04300
N847        N  0.56346766  0.56661522  0.00337548     0.66800
H848        H  0.49846371  0.55626934  0.99946496     0.15700
H849        H  0.50125959  0.94367673  0.00294171     0.15400
N850        N  0.93640354  0.93333823  0.00037757     0.74500
O851        O  0.57466048  0.58636142  0.96675958    -0.38900
O852        O  0.57762084  0.57858306  0.04401414    -0.38900
O853        O  0.92838686  0.91253088  0.96470585    -0.39600
O854        O  0.91916059  0.92231887  0.03923852    -0.39700
C855        C  0.71609947  0.96674277  0.98937146    -0.11900
C856        C  0.71655758  0.49894447  0.00399648     0.05100
C857        C  0.74911557  0.52976625  0.01431380    -0.07200
C858        C  0.78069416  0.52861227  0.01298535    -0.08000
C859        C  0.78066834  0.49711322  0.00111620    -0.02500
C860        C  0.74784394  0.96584979  0.98669113     0.04300
N861        N  0.74645543  0.93408426  0.96976207     0.66800
H862        H  0.69136415  0.94345218  0.97842047     0.15700
H863        H  0.80548106  0.55274482  0.02120328     0.15400
N864        N  0.75033204  0.56207143  0.02809014     0.74500
O865        O  0.74197952  0.91026895  0.99940614    -0.38900
O866        O  0.74446190  0.92764658  0.92503364    -0.38900
O867        O  0.74705593  0.56788464  0.07196752    -0.39600
O868        O  0.75952612  0.58664961  0.99770498    -0.39700
C869        C  0.91070062  0.55845572  0.78620580    -0.11900
C870        C  0.94223194  0.59143011  0.78930898     0.05100
C871        C  0.95459455  0.60671328  0.83532194    -0.07200
C872        C  0.93655027  0.58823486  0.87688400    -0.08000
C873        C  0.90622674  0.55425879  0.87398170    -0.02500
C874        C  0.89274830  0.53981128  0.82783174     0.04300
N875        N  0.86117363  0.50607261  0.82251757     0.66800
H876        H  0.90058863  0.54622344  0.75110266     0.15700
H877        H  0.94743092  0.60010601  0.91190297     0.15400
N878        N  0.98576113  0.64077389  0.84056191     0.74500
O879        O  0.83119205  0.50372377  0.82725594    -0.38900
O880        O  0.86309970  0.47990760  0.80632493    -0.38900
O881        O  0.48308208  0.66835082  0.84048207    -0.39600
O882        O  0.01467293  0.64291632  0.85305879    -0.39700
C883        C  0.60895450  0.95434870  0.83744628    -0.11900
C884        C  0.58999716  0.94206697  0.88076827     0.05100
C885        C  0.55557159  0.91194998  0.87943402    -0.07200
C886        C  0.54003253  0.89644606  0.83508338    -0.08000
C887        C  0.55823528  0.90976449  0.79133712    -0.02500
C888        C  0.59381831  0.93812755  0.79311106     0.04300
N889        N  0.61463090  0.95161847  0.75026973     0.66800
H890        H  0.63582268  0.97719681  0.83790122     0.15700
H891        H  0.51274812  0.87436128  0.83494296     0.15400
N892        N  0.53481623  0.89856768  0.92234063     0.74500
O893        O  0.62296951  0.98219275  0.73547470    -0.38900
O894        O  0.63004527  0.93602821  0.73278622    -0.38900
O895        O  0.51201057  0.90741269  0.93267452    -0.39600
O896        O  0.53471906  0.87333986  0.94474429    -0.39700
C897        C  0.96986075  0.72011317  0.66494210    -0.11900
C898        C  0.50212786  0.72018577  0.66815993     0.05100
C899        C  0.53418198  0.75307222  0.67045884    -0.07200
C900        C  0.53340429  0.78483585  0.66894311    -0.08000
C901        C  0.50114484  0.78472008  0.66588660    -0.02500
C902        C  0.96906917  0.75189738  0.66388377     0.04300
N903        N  0.93560965  0.75038930  0.65875995     0.66800
H904        H  0.94486101  0.69504154  0.66299564     0.15700
H905        H  0.55839184  0.80993573  0.67074804     0.15400
N906        N  0.56781576  0.75474388  0.67298028     0.74500
O907        O  0.92730671  0.75815161  0.61886704    -0.38900
O908        O  0.91263821  0.73696128  0.69177804    -0.38900
O909        O  0.58480378  0.75761647  0.63466694    -0.39600
O910        O  0.58297266  0.75920760  0.71331035    -0.39700
C911        C  0.97059195  0.96980953  0.66420199    -0.11900
C912        C  0.50345505  0.97091384  0.66505231     0.05100
C913        C  0.53514956  0.50418645  0.67008811    -0.07200
C914        C  0.53310661  0.53525540  0.67181006    -0.08000
C915        C  0.50047072  0.53422372  0.66695069    -0.02500
C916        C  0.96916130  0.50104110  0.66147450     0.04300
N917        N  0.93473173  0.99853329  0.66461645     0.66800
H918        H  0.94609781  0.94452282  0.66325339     0.15700
H919        H  0.55737756  0.56040589  0.67647838     0.15400
N920        N  0.56904547  0.50682363  0.67605291     0.74500
O921        O  0.91780075  0.99304639  0.62558816    -0.38900
O922        O  0.91849379  0.49648281  0.69717527    -0.38900
O923        O  0.58267992  0.00369665  0.62896255    -0.39600
O924        O  0.58559820  0.51869967  0.71530749    -0.39700
C925        C  0.60649299  0.64794321  0.50192142    -0.11900
C926        C  0.59385834  0.65350468  0.45803105     0.05100
C927        C  0.56530910  0.66046208  0.45933916    -0.07200
C928        C  0.54779035  0.65780432  0.50314795    -0.08000
C929        C  0.55926265  0.65016977  0.54646137    -0.02500
C930        C  0.58973089  0.64647295  0.54577709     0.04300
N931        N  0.60216863  0.63799924  0.58860928     0.66800
H932        H  0.62845891  0.64299129  0.50214828     0.15700
H933        H  0.52515316  0.66170127  0.50329772     0.15400
N934        N  0.55336645  0.66972413  0.41663378     0.74500
O935        O  0.58755132  0.60620826  0.60258141    -0.38900
O936        O  0.63111930  0.66089310  0.60747253    -0.38900
O937        O  0.52167916  0.65071596  0.40259401    -0.39600
O938        O  0.57277209  0.69957985  0.39733614    -0.39700
C939        C  0.65007423  0.59091190  0.12279097    -0.11900
C940        C  0.64679205  0.55710024  0.12558011     0.05100
C941        C  0.64551920  0.54268158  0.17162676    -0.07200
C942        C  0.64607609  0.56132236  0.21327248    -0.08000
C943        C  0.64735611  0.59416432  0.21038438    -0.02500
C944        C  0.65019063  0.60936272  0.16455125     0.04300
N945        N  0.65300575  0.64338091  0.15973978     0.66800
H946        H  0.65121150  0.60261693  0.08797091     0.15700
H947        H  0.64376508  0.54910932  0.24806098     0.15400
N948        N  0.64195453  0.00819814  0.17842070     0.74500
O949        O  0.68253758  0.67115528  0.16674893    -0.38900
O950        O  0.62760315  0.64574535  0.14183995    -0.38900
O951        O  0.66955295  0.00585031  0.18333471    -0.39600
O952        O  0.61193083  0.98158916  0.18722002    -0.39700
C953        C  0.94317808  0.85489546  0.45462584    -0.11900
C954        C  0.91098900  0.85512891  0.45682772     0.05100
C955        C  0.89599118  0.85400710  0.50252152    -0.07200
C956        C  0.91390790  0.85414040  0.54459612    -0.08000
C957        C  0.94709929  0.85593844  0.54240236    -0.02500
C958        C  0.96133747  0.85552939  0.49666750     0.04300
N959        N  0.49455408  0.85646708  0.49214269     0.66800
H960        H  0.95525110  0.85577946  0.41996752     0.15700
H961        H  0.90239728  0.85444255  0.57925274     0.15400
N962        N  0.86293147  0.85340017  0.50695921     0.74500
O963        O  0.49577885  0.82825706  0.49677100    -0.38900
O964        O  0.52152463  0.88421856  0.47710391    -0.38900
O965        O  0.83429144  0.82402686  0.50780148    -0.39600
O966        O  0.86273003  0.88146186  0.51817043    -0.39700
C967        C  0.53547124  0.50427274  0.33270358    -0.11900
C968        C  0.53422468  0.53586087  0.33570605     0.05100
C969        C  0.50097928  0.53396476  0.33927384    -0.07200
C970        C  0.96981276  0.50094841  0.33888831    -0.08000
C971        C  0.97046536  0.96969647  0.33498602    -0.02500
C972        C  0.50386474  0.97163077  0.33436641     0.04300
N973        N  0.50661805  0.94025062  0.33577510     0.66800
H974        H  0.56099381  0.50529169  0.33048200     0.15700
H975        H  0.94363975  0.00032076  0.33717505     0.15400
N976        N  0.99849889  0.56520396  0.34629132     0.74500
O977        O  0.51448664  0.92941518  0.29791830    -0.38900
O978        O  0.00656508  0.92665182  0.37592118    -0.38900
O979        O  0.49124108  0.57867612  0.31098797    -0.39600
O980        O  0.99678369  0.57505594  0.38865937    -0.39700
C981        C  0.75300073  0.78651110  0.33006047    -0.11900
C982        C  0.78469496  0.78529425  0.33010199     0.05100
C983        C  0.78281087  0.75195728  0.32958794    -0.07200
C984        C  0.74972810  0.72082864  0.33012201    -0.08000
C985        C  0.71804698  0.72200333  0.33061260    -0.02500
C986        C  0.71984210  0.75531722  0.33015676     0.04300
N987        N  0.68836997  0.75797001  0.33193849     0.66800
H988        H  0.75393700  0.81202167  0.33029472     0.15700
H989        H  0.74886187  0.69535008  0.33012797     0.15400
N990        N  0.81421408  0.74921469  0.33044152     0.74500
O991        O  0.67180676  0.75283951  0.37126915    -0.38900
O992        O  0.67983862  0.76992289  0.29611613    -0.38900
O993        O  0.82738531  0.74784494  0.37037077    -0.39600
O994        O  0.82556628  0.74286903  0.29184893    -0.39700
C995        C  0.85196832  0.91070941  0.12096493    -0.11900
C996        C  0.85441494  0.94418916  0.12237260     0.05100
C997        C  0.85579679  0.95977266  0.16785283    -0.07200
C998        C  0.85651472  0.94275263  0.21023924    -0.08000
C999        C  0.85583334  0.91015398  0.20870126    -0.02500
C1000       C  0.85257450  0.89362355  0.16348143     0.04300
N1001       N  0.84966475  0.85944149  0.16012616     0.66800
H1002       H  0.85057925  0.89804837  0.08654253     0.15700
H1003       H  0.85888895  0.95587007  0.24460704     0.15400
N1004       N  0.85293048  0.49106085  0.17174908     0.74500
O1005       O  0.82171558  0.83229987  0.17433779    -0.38900
O1006       O  0.87308201  0.85582875  0.13798582    -0.38900
O1007       O  0.82401843  0.49074667  0.16562014    -0.39600
O1008       O  0.87967207  0.51875581  0.18767485    -0.39700
loop_ 
_geom_bond_atom_site_label_1 
_geom_bond_atom_site_label_2 
_geom_bond_distance 
_geom_bond_site_symmetry_2 
_ccdc_geom_bond_type 
O1           Ni9   1.918       .  S
O1           C11   1.281       .  A
O2           Ni9   1.917       .  S
O2           C12   1.281       .  A
O3           Ni9   1.920       .  S
O3           C13   1.282       .  A
O4           Ni9   1.916       .  S
O4           C14   1.282       .  A
O5          Ni10   1.920       .  S
O5           C14   1.282       .  A
O6          Ni10   1.918       .  S
O6           C13   1.282       .  A
O7          Ni10   1.913       .  S
O7           C12   1.280       .  A
O8          Ni10   1.911       .  S
O8           C11   1.281       .  A
Ni9         Ni10   2.386       .  S
C11         C215   1.479       .  S
C12         C226   1.479       .  S
C13         C243   1.485       .  S
C14         C198   1.484       .  S
O15         Ni23   1.918       .  S
O15          C25   1.281       .  A
O16         Ni23   1.918       .  S
O16          C26   1.281       .  A
O17         Ni23   1.924       .  S
O17          C27   1.283       .  A
O18         Ni23   1.920       .  S
O18          C28   1.281       .  A
O19         Ni24   1.916       .  S
O19          C28   1.282       .  A
O20         Ni24   1.912       .  S
O20          C27   1.281       .  A
O21         Ni24   1.911       .  S
O21          C26   1.281       .  A
O22         Ni24   1.914       .  S
O22          C25   1.281       .  A
Ni23        Ni24   2.386       .  S
C25         C212   1.478       .  S
C26         C229   1.478       .  S
C27         C187   1.482       .  S
C28         C170   1.491       .  S
O29         Ni37   1.913       .  S
O29         C543   1.281       .  A
O30         Ni37   1.913       .  S
O30         C544   1.280       .  A
O31         Ni37   1.920       .  S
O31         C545   1.283       .  A
O32         Ni37   1.915       .  S
O32          C42   1.281       .  A
O33         Ni38   1.921       .  S
O33         C546   1.282   1_455  A
O34         Ni38   1.919       .  S
O34          C41   1.281       .  A
O35         Ni38   1.918       .  S
O35          C40   1.282       .  A
O36         Ni38   1.917       .  S
O36          C39   1.281       .  A
Ni37       Ni542   2.386       .  S
Ni38       Ni541   2.386   1_455  S
C39         O533   1.281   1_455  A
C39         C156   1.476       .  S
C40         O534   1.280   1_455  A
C40         C145   1.479       .  S
C41         O535   1.283       .  A
C41         C131   1.490       .  S
C42         O537   1.282       .  A
C42         C201   1.486       .  S
O43         Ni51   1.917       .  S
O43         C557   1.281       .  A
O44         Ni51   1.918       .  S
O44         C558   1.282       .  A
O45         Ni51   1.922       .  S
O45         C559   1.282       .  A
O46         Ni51   1.919       .  S
O46          C56   1.282       .  A
O47         Ni52   1.920   1_655  S
O47         C560   1.282       .  A
O48         Ni52   1.917       .  S
O48          C55   1.281       .  A
O49         Ni52   1.914       .  S
O49          C54   1.280       .  A
O50         Ni52   1.912       .  S
O50          C53   1.281       .  A
Ni51       Ni556   2.387       .  S
Ni52       Ni555   2.387   1_455  S
C53         O547   1.281   1_455  A
C53         C159   1.477       .  S
C54         O548   1.282   1_455  A
C54         C142   1.481       .  S
C55         O549   1.282       .  A
C55         C173   1.483       .  S
C56         O551   1.282       .  A
C56         C114   1.484       .  S
O57         Ni65   1.914       .  S
O57          C67   1.281   1_544  A
O58         Ni65   1.915       .  S
O58          C68   1.282   1_544  A
O59         Ni65   1.915   1_565  S
O59         C321   1.281       .  A
O60         Ni65   1.914   1_556  S
O60          C70   1.281       .  A
O61         Ni66   1.925       .  S
O61         C322   1.283       .  A
O62         Ni66   1.923   1_554  S
O62          C69   1.283       .  A
O63         Ni66   1.916       .  S
O63         C320   1.281       .  A
O64         Ni66   1.913       .  S
O64         C319   1.280       .  A
Ni65       Ni318   2.384   1_544  S
Ni66       Ni317   2.385   1_556  S
C67         O316   1.280       .  A
C67          C86   1.477       .  S
C68         O315   1.281       .  A
C68         C103   1.488   1_556  S
C69         O311   1.281       .  A
C69         C240   1.486       .  S
C70         O313   1.283   1_545  A
C70         C117   1.489       .  S
O71         Ni79   1.914       .  S
O71         C333   1.281       .  A
O72         Ni79   1.917       .  S
O72         C334   1.281       .  A
O73         Ni79   1.917       .  S
O73         C335   1.282       .  A
O74         Ni79   1.914   1_556  S
O74          C84   1.280       .  A
O75         Ni80   1.923   1_565  S
O75         C336   1.283       .  A
O76         Ni80   1.917   1_554  S
O76          C83   1.282       .  A
O77         Ni80   1.914       .  S
O77          C82   1.280   1_546  A
O78         Ni80   1.913       .  S
O78          C81   1.280   1_556  A
Ni79       Ni332   2.387   1_554  S
Ni80       Ni331   2.387   1_546  S
C81         O323   1.281   1_545  A
C81          C89   1.476       .  S
C82         O324   1.281       .  A
C82         C100   1.472       .  S
C83         O325   1.282       .  A
C83         C184   1.486       .  S
C84         O327   1.283       .  A
C84         C128   1.483       .  S
C85          C90   1.400   1_655  A
C85         C590   1.404   1_545  A
C85          H92   1.082       .  S
C86         C589   1.404   1_565  A
C86         C339   1.412       .  A
C87         C338   1.412       .  A
C87         C592   1.398       .  A
C87          N94   1.430       .  S
C88         C591   1.398   1_455  A
C88         C341   1.402   1_556  A
C88          H93   1.080       .  S
C89          C90   1.411   1_554  A
C89         C340   1.402   1_545  A
C90          N91   1.429   1_556  S
N91          O95   1.262   1_554  A
N91          O96   1.262       .  A
N94          O98   1.262   1_556  A
N94          O97   1.262       .  A
C99         C104   1.401       .  A
C99         C352   1.401   1_556  A
C99         H106   1.088       .  S
C100        C101   1.406   1_565  A
C100        C351   1.400   1_554  A
C101        C102   1.398       .  A
C101        N108   1.429       .  S
C102        C103   1.407   1_545  A
C102        H107   1.087       .  S
C103        C356   1.417   1_554  A
C104        C355   1.416   1_556  A
C104        N105   1.429       .  S
N105        O109   1.262   1_556  A
N105        O110   1.262       .  A
N108        O112   1.262       .  A
N108        O111   1.262       .  A
C113        C114   1.405       .  A
C113        C118   1.403       .  A
C113        H120   1.088       .  S
C114        C115   1.410       .  A
C115        C116   1.400       .  A
C115        N122   1.429       .  S
C116        C117   1.407       .  A
C116        H121   1.088       .  S
C117        C118   1.414       .  A
C118        N119   1.429       .  S
N119        O123   1.262       .  A
N119        O124   1.262   1_545  A
N122        O126   1.262       .  A
N122        O629   1.262       .  A
O125        N626   1.262       .  A
C127        C128   1.403       .  A
C127        C132   1.404       .  A
C127        H134   1.091       .  S
C128        C129   1.413       .  A
C129        C130   1.399       .  A
C129        N136   1.429       .  S
C130        C131   1.405       .  A
C130        H135   1.091       .  S
C131        C132   1.417       .  A
C132        N133   1.430       .  S
N133        O137   1.262       .  A
N133        O138   1.262       .  A
N136        O140   1.262       .  A
N136        O139   1.261       .  A
C141        C146   1.400       .  A
C141        C646   1.403       .  A
C141        H148   1.090       .  S
C142        C143   1.413       .  A
C142        C645   1.403   1_455  A
C143        C144   1.400       .  A
C143        N150   1.429       .  S
C144        C145   1.403       .  A
C144        H149   1.090       .  S
C145        C650   1.412   1_455  A
C146        C649   1.412       .  A
C146        N147   1.430       .  S
N147        O151   1.262       .  A
N147        O152   1.262       .  A
N150        O154   1.262       .  A
N150        O153   1.262       .  A
C155        C660   1.404       .  A
C155        C412   1.400       .  A
C155        H162   1.083       .  S
C156        C659   1.404   1_455  A
C156        C409   1.411       .  A
C157        C158   1.399       .  A
C157        C408   1.413   1_545  A
C157        N164   1.430       .  S
C158        C159   1.402       .  A
C158        H163   1.081       .  S
C159        C664   1.410   1_455  A
C160        C407   1.400   1_545  A
C160        C663   1.410       .  A
C160        N413   1.429   1_545  S
N161        C412   1.429       .  S
N161        O165   1.262       .  A
N161        O418   1.262       .  A
N164        O168   1.262       .  A
N164        O419   1.262       .  A
O166        N413   1.262       .  A
O167        N416   1.262       .  A
C169        C170   1.406       .  A
C169        C174   1.400       .  A
C169        H176   1.079       .  S
C170        C171   1.417       .  A
C171        C172   1.405       .  A
C171        N178   1.431       .  S
C172        C173   1.404       .  A
C172        H177   1.079       .  S
C173        C174   1.411       .  A
C174        N175   1.429       .  S
N175        O179   1.261       .  A
N175        O180   1.262       .  A
N178        O182   1.262       .  A
N178        O181   1.262       .  A
C183        C184   1.408       .  A
C183        C188   1.403       .  A
C183        H190   1.082       .  S
C184        C185   1.413       .  A
C185        C186   1.399       .  A
C185        N444   1.429       .  S
C186        C187   1.404       .  A
C186        H191   1.083       .  S
C187        C188   1.411       .  A
C188        N189   1.429       .  S
N189        O193   1.262       .  A
N189        O194   1.262       .  A
N192        C437   1.429       .  S
N192        O196   1.262       .  A
N192        O195   1.262       .  A
C197        C198   1.405       .  A
C197        C202   1.401       .  A
C197        H204   1.084       .  S
C198        C199   1.412       .  A
C199        C200   1.401       .  A
C199        N206   1.429       .  S
C200        C201   1.406       .  A
C200        H205   1.084       .  S
C201        C202   1.412       .  A
C202        N707   1.429       .  S
N203        C706   1.429       .  S
N203        O207   1.262       .  A
N203        O208   1.262   1_655  A
N206        O210   1.262       .  A
N206        O209   1.262       .  A
C211        C212   1.404       .  A
C211        C468   1.401   1_545  A
C211        H218   1.090       .  S
C212        C213   1.410       .  A
C213        C718   1.397   1_455  A
C213        N724   1.428   1_455  S
C214        C717   1.397       .  A
C214        C467   1.403   1_545  A
C214        H471   1.090       .  S
C215        C466   1.403       .  A
C215        C720   1.413       .  A
C216        C463   1.401       .  A
C216        C719   1.413   1_455  A
C216        N217   1.429       .  S
N217        O221   1.262       .  A
N217        O726   1.262       .  A
H219        C466   1.089       .  S
N220        C717   1.428       .  S
N220        O224   1.262       .  A
N220        O727   1.262       .  A
O222        N721   1.262       .  A
O223        N724   1.262       .  A
C225        C226   1.405       .  A
C225        C230   1.401       .  A
C225        H232   1.090       .  S
C226        C227   1.411       .  A
C227        C228   1.398       .  A
C227        N234   1.429       .  S
C228        C229   1.403       .  A
C228        H233   1.090       .  S
C229        C230   1.412       .  A
C230        N231   1.430       .  S
N231        O235   1.262       .  A
N231        O236   1.262       .  A
N234        O238   1.262       .  A
N234        O237   1.262       .  A
C239        C240   1.406       .  A
C239        C244   1.403       .  A
C239        H246   1.085       .  S
C240        C241   1.413       .  A
C241        C242   1.401       .  A
C241        N500   1.430       .  S
C242        C243   1.405       .  A
C242        H247   1.085       .  S
C243        C244   1.413       .  A
C244        N245   1.430       .  S
N245        O249   1.262       .  A
N245        O250   1.262       .  A
N248        C493   1.429       .  S
N248        O252   1.262   1_565  A
N248        O251   1.262       .  A
O253       Ni261   1.918       .  S
O253        C263   1.281       .  A
O254       Ni261   1.917       .  S
O254        C264   1.281       .  A
O255       Ni261   1.921       .  S
O255        C265   1.282       .  A
O256       Ni261   1.916       .  S
O256        C266   1.282       .  A
O257       Ni262   1.920       .  S
O257        C266   1.282       .  A
O258       Ni262   1.917       .  S
O258        C265   1.282       .  A
O259       Ni262   1.913       .  S
O259        C264   1.281       .  A
O260       Ni262   1.912       .  S
O260        C263   1.281       .  A
Ni261      Ni262   2.387       .  S
C263        C467   1.478       .  S
C264        C478   1.480       .  S
C265        C495   1.484       .  S
C266        C450   1.485       .  S
O267       Ni275   1.918       .  S
O267        C277   1.282       .  A
O268       Ni275   1.918       .  S
O268        C278   1.281       .  A
O269       Ni275   1.922       .  S
O269        C279   1.282       .  A
O270       Ni275   1.918       .  S
O270        C280   1.281       .  A
O271       Ni276   1.918       .  S
O271        C280   1.283       .  A
O272       Ni276   1.914       .  S
O272        C279   1.281       .  A
O273       Ni276   1.911       .  S
O273        C278   1.281       .  A
O274       Ni276   1.913       .  S
O274        C277   1.280       .  A
Ni275      Ni276   2.386       .  S
C277        C464   1.477       .  S
C278        C481   1.479       .  S
C279        C439   1.482       .  S
C280        C422   1.491       .  S
O281       Ni289   1.915       .  S
O281        C795   1.281       .  A
O282       Ni289   1.916       .  S
O282        C796   1.281       .  A
O283       Ni289   1.920       .  S
O283        C797   1.283       .  A
O284       Ni289   1.915       .  S
O284        C294   1.281       .  A
O285       Ni290   1.921       .  S
O285        C798   1.282   1_455  A
O286       Ni290   1.920       .  S
O286        C293   1.281       .  A
O287       Ni290   1.917       .  S
O287        C292   1.281       .  A
O288       Ni290   1.916       .  S
O288        C291   1.280       .  A
Ni289      Ni794   2.385       .  S
Ni290      Ni793   2.385   1_455  S
C291        O785   1.281   1_455  A
C291        C408   1.479       .  S
C292        O786   1.281   1_455  A
C292        C397   1.479       .  S
C293        O787   1.283       .  A
C293        C383   1.491       .  S
C294        O789   1.282       .  A
C294        C453   1.486       .  S
O295       Ni303   1.916       .  S
O295        C809   1.281       .  A
O296       Ni303   1.918       .  S
O296        C810   1.282       .  A
O297       Ni303   1.923       .  S
O297        C811   1.282       .  A
O298       Ni303   1.920       .  S
O298        C308   1.282       .  A
O299       Ni304   1.919   1_655  S
O299        C812   1.282       .  A
O300       Ni304   1.917       .  S
O300        C307   1.281       .  A
O301       Ni304   1.915       .  S
O301        C306   1.280       .  A
O302       Ni304   1.911       .  S
O302        C305   1.281       .  A
Ni303      Ni808   2.386       .  S
Ni304      Ni807   2.386   1_455  S
C305        O799   1.281   1_455  A
C305        C411   1.479       .  S
C306        O800   1.282   1_455  A
C306        C394   1.482       .  S
C307        O801   1.282       .  A
C307        C425   1.483       .  S
C308        O803   1.282       .  A
C308        C366   1.485       .  S
O309       Ni317   1.914       .  S
O309        C319   1.281   1_554  A
O310       Ni317   1.915       .  S
O310        C320   1.282   1_554  A
O311       Ni317   1.916       .  S
O312       Ni317   1.915   1_556  S
O312        C322   1.281       .  A
O313       Ni318   1.926       .  S
O314       Ni318   1.923   1_554  S
O314        C321   1.283       .  A
O315       Ni318   1.917       .  S
O316       Ni318   1.913       .  S
C319        C338   1.477       .  S
C320        C355   1.486   1_556  S
C321        C492   1.487       .  S
C322        C369   1.489       .  S
O323       Ni331   1.914       .  S
O324       Ni331   1.919       .  S
O325       Ni331   1.918   1_545  S
O326       Ni331   1.914   1_556  S
O326        C336   1.280       .  A
O327       Ni332   1.924       .  S
O328       Ni332   1.917   1_554  S
O328        C335   1.282       .  A
O329       Ni332   1.914       .  S
O329        C334   1.280   1_556  A
O330       Ni332   1.913       .  S
O330        C333   1.280   1_556  A
C333        C341   1.475       .  S
C334        C352   1.473       .  S
C335        C436   1.486       .  S
C336        C380   1.483       .  S
C337        C842   1.404       .  A
C337        C342   1.400   1_656  A
C337        H344   1.082       .  S
C338        C841   1.404       .  A
C339        C844   1.398   1_556  A
C339        N346   1.430   1_556  S
C340        C843   1.398   1_454  A
C340        H345   1.081       .  S
C341        C342   1.411       .  A
C342        N343   1.429       .  S
N343        O347   1.262   1_554  A
N343        O348   1.262       .  A
N346        O350   1.262       .  A
N346        O349   1.262   1_554  A
C351        C356   1.401       .  A
C351        H358   1.088       .  S
C352        C353   1.408       .  A
C353        C354   1.399       .  A
C353        N360   1.429       .  S
C354        C355   1.407       .  A
C354        H359   1.087       .  S
C356        N357   1.429       .  S
N357        O361   1.262       .  A
N357        O362   1.262       .  A
N360        O364   1.262   1_554  A
N360        O363   1.262       .  A
C365        C366   1.406       .  A
C365        C370   1.403       .  A
C365        H372   1.088       .  S
C366        C367   1.411       .  A
C367        C368   1.401       .  A
C367        N374   1.429       .  S
C368        C369   1.407       .  A
C368        H373   1.088       .  S
C369        C370   1.413       .  A
C370        N371   1.429       .  S
N371        O375   1.262       .  A
N371        O376   1.262       .  A
N374        O378   1.262       .  A
N374        O881   1.262       .  A
O377        N878   1.262       .  A
C379        C380   1.402       .  A
C379        C384   1.403       .  A
C379        H386   1.091       .  S
C380        C381   1.413       .  A
C381        C382   1.399       .  A
C381        N388   1.429       .  S
C382        C383   1.405       .  A
C382        H387   1.091       .  S
C383        C384   1.417       .  A
C384        N385   1.429       .  S
N385        O389   1.261       .  A
N385        O390   1.262       .  A
N388        O392   1.262       .  A
N388        O391   1.262       .  A
C393        C898   1.404       .  A
C393        C398   1.400       .  A
C393        H400   1.090       .  S
C394        C897   1.404   1_455  A
C394        C395   1.413       .  A
C395        C396   1.400       .  A
C395        N402   1.429       .  S
C396        C397   1.403       .  A
C396        H401   1.090       .  S
C397        C902   1.412   1_455  A
C398        C901   1.412       .  A
C398        N399   1.430       .  S
N399        O403   1.262       .  A
N399        O404   1.262       .  A
N402        O406   1.262       .  A
N402        O405   1.262       .  A
C407        C912   1.405       .  A
C407        H414   1.083       .  S
C408        C911   1.405   1_455  A
C409        C410   1.398       .  A
C409        N416   1.429       .  S
C410        C411   1.403       .  A
C410        H415   1.082       .  S
C411        C916   1.411   1_455  A
C412        C915   1.411       .  A
N413        O417   1.262       .  A
N416        O420   1.262       .  A
C421        C422   1.406       .  A
C421        C426   1.400       .  A
C421        H428   1.079       .  S
C422        C423   1.417       .  A
C423        C424   1.405       .  A
C423        N430   1.431       .  S
C424        C425   1.404       .  A
C424        H429   1.079       .  S
C425        C426   1.412       .  A
C426        N427   1.429       .  S
N427        O431   1.262       .  A
N427        O432   1.262       .  A
N430        O434   1.262       .  A
N430        O433   1.262       .  A
C435        C436   1.407       .  A
C435        C440   1.402       .  A
C435        H442   1.082       .  S
C436        C437   1.413       .  A
C437        C438   1.399       .  A
C438        C439   1.404       .  A
C438        H443   1.083       .  S
C439        C440   1.411       .  A
C440        N441   1.429       .  S
N441        O445   1.262       .  A
N441        O446   1.262       .  A
N444        O448   1.262   1_545  A
N444        O447   1.262       .  A
C449        C450   1.405       .  A
C449        C454   1.401       .  A
C449        H456   1.084       .  S
C450        C451   1.412       .  A
C451        C452   1.401       .  A
C451        N458   1.429       .  S
C452        C453   1.406       .  A
C452        H457   1.084       .  S
C453        C454   1.412       .  A
C454        N959   1.429       .  S
N455        C958   1.429       .  S
N455        O459   1.262       .  A
N455        O460   1.262   1_655  A
N458        O462   1.262       .  A
N458        O461   1.262       .  A
C463        C464   1.404       .  A
C463        H470   1.090       .  S
C464        C465   1.409       .  A
C465        C970   1.397   1_455  A
C465        N976   1.428   1_455  S
C466        C969   1.397       .  A
C467        C972   1.412       .  A
C468        C971   1.412   1_455  A
C468        N469   1.429       .  S
N469        O473   1.262       .  A
N469        O978   1.262       .  A
N472        C969   1.428       .  S
N472        O476   1.262       .  A
N472        O979   1.262       .  A
O474        N973   1.262       .  A
O475        N976   1.262       .  A
C477        C478   1.405       .  A
C477        C482   1.401       .  A
C477        H484   1.090       .  S
C478        C479   1.411       .  A
C479        C480   1.398       .  A
C479        N486   1.429       .  S
C480        C481   1.403       .  A
C480        H485   1.090       .  S
C481        C482   1.412       .  A
C482        N483   1.430       .  S
N483        O487   1.262       .  A
N483        O488   1.262       .  A
N486        O490   1.262       .  A
N486        O489   1.262       .  A
C491        C492   1.406       .  A
C491        C496   1.403       .  A
C491        H498   1.085       .  S
C492        C493   1.414       .  A
C493        C494   1.400       .  A
C494        C495   1.404       .  A
C494        H499   1.085       .  S
C495        C496   1.412       .  A
C496        N497   1.430       .  S
N497        O501   1.262       .  A
N497        O502   1.262       .  A
N500        O504   1.262       .  A
N500        O503   1.262       .  A
O505       Ni513   1.918       .  S
O505        C515   1.281       .  A
O506       Ni513   1.917       .  S
O506        C516   1.281       .  A
O507       Ni513   1.920       .  S
O507        C517   1.282       .  A
O508       Ni513   1.916       .  S
O508        C518   1.282       .  A
O509       Ni514   1.920       .  S
O509        C518   1.282       .  A
O510       Ni514   1.918       .  S
O510        C517   1.282       .  A
O511       Ni514   1.913       .  S
O511        C516   1.280       .  A
O512       Ni514   1.911       .  S
O512        C515   1.281       .  A
Ni513      Ni514   2.386       .  S
C515        C719   1.479       .  S
C516        C730   1.479       .  S
C517        C747   1.485       .  S
C518        C702   1.484       .  S
O519       Ni527   1.918       .  S
O519        C529   1.281       .  A
O520       Ni527   1.918       .  S
O520        C530   1.281       .  A
O521       Ni527   1.924       .  S
O521        C531   1.283       .  A
O522       Ni527   1.920       .  S
O522        C532   1.281       .  A
O523       Ni528   1.916       .  S
O523        C532   1.282       .  A
O524       Ni528   1.912       .  S
O524        C531   1.281       .  A
O525       Ni528   1.911       .  S
O525        C530   1.281       .  A
O526       Ni528   1.914       .  S
O526        C529   1.281       .  A
Ni527      Ni528   2.386       .  S
C529        C716   1.478       .  S
C530        C733   1.478       .  S
C531        C691   1.482       .  S
C532        C674   1.491       .  S
O533       Ni541   1.913       .  S
O534       Ni541   1.913       .  S
O535       Ni541   1.920   1_455  S
O536       Ni541   1.915       .  S
O536        C546   1.281       .  A
O537       Ni542   1.921       .  S
O538       Ni542   1.919       .  S
O538        C545   1.281       .  A
O539       Ni542   1.918       .  S
O539        C544   1.282       .  A
O540       Ni542   1.917       .  S
O540        C543   1.281       .  A
C543        C660   1.476       .  S
C544        C649   1.479       .  S
C545        C635   1.490       .  S
C546        C705   1.486       .  S
O547       Ni555   1.917       .  S
O548       Ni555   1.918       .  S
O549       Ni555   1.922   1_455  S
O550       Ni555   1.919       .  S
O550        C560   1.282       .  A
O551       Ni556   1.920       .  S
O552       Ni556   1.917       .  S
O552        C559   1.281       .  A
O553       Ni556   1.914       .  S
O553        C558   1.280       .  A
O554       Ni556   1.912       .  S
O554        C557   1.281       .  A
C557        C663   1.477       .  S
C558        C646   1.481       .  S
C559        C677   1.483       .  S
C560        C618   1.484       .  S
O561       Ni569   1.914       .  S
O561        C571   1.281   1_544  A
O562       Ni569   1.915       .  S
O562        C572   1.282   1_544  A
O563       Ni569   1.915   1_565  S
O563        C825   1.281       .  A
O564       Ni569   1.914   1_556  S
O564        C574   1.281       .  A
O565       Ni570   1.925       .  S
O565        C826   1.283       .  A
O566       Ni570   1.923   1_554  S
O566        C573   1.283       .  A
O567       Ni570   1.916       .  S
O567        C824   1.281       .  A
O568       Ni570   1.913       .  S
O568        C823   1.280       .  A
Ni569      Ni822   2.384   1_544  S
Ni570      Ni821   2.385   1_556  S
C571        O820   1.280       .  A
C571        C590   1.477       .  S
C572        O819   1.281       .  A
C572        C607   1.488   1_556  S
C573        O815   1.281       .  A
C573        C744   1.486       .  S
C574        O817   1.283   1_545  A
C574        C621   1.489       .  S
O575       Ni583   1.914       .  S
O575        C837   1.281       .  A
O576       Ni583   1.917       .  S
O576        C838   1.281       .  A
O577       Ni583   1.917       .  S
O577        C839   1.282       .  A
O578       Ni583   1.914   1_556  S
O578        C588   1.280       .  A
O579       Ni584   1.923   1_565  S
O579        C840   1.283       .  A
O580       Ni584   1.917   1_554  S
O580        C587   1.282       .  A
O581       Ni584   1.914       .  S
O581        C586   1.280   1_546  A
O582       Ni584   1.913       .  S
O582        C585   1.280   1_556  A
Ni583      Ni836   2.387   1_554  S
Ni584      Ni835   2.387   1_546  S
C585        O827   1.281   1_545  A
C585        C593   1.476       .  S
C586        O828   1.281       .  A
C586        C604   1.472       .  S
C587        O829   1.282       .  A
C587        C688   1.486       .  S
C588        O831   1.283       .  A
C588        C632   1.483       .  S
C589        C594   1.400       .  A
C589        H596   1.082       .  S
C590        C843   1.412       .  A
C591        C842   1.412       .  A
C591        N598   1.430       .  S
C592        C845   1.402   1_556  A
C592        H597   1.080       .  S
C593        C844   1.402   1_545  A
C593        C594   1.411   1_554  A
C594        N595   1.429   1_556  S
N595        O599   1.262   1_554  A
N595        O600   1.262       .  A
N598        O602   1.262   1_556  A
N598        O601   1.262       .  A
C603        C856   1.401   1_556  A
C603        C608   1.401       .  A
C603        H610   1.088       .  S
C604        C855   1.400   1_554  A
C604        C605   1.406   1_565  A
C605        C606   1.398       .  A
C605        N612   1.429       .  S
C606        C607   1.407   1_545  A
C606        H611   1.087       .  S
C607        C860   1.417   1_554  A
C608        C859   1.416   1_556  A
C608        N609   1.429       .  S
N609        O613   1.262   1_556  A
N609        O614   1.262       .  A
N612        O616   1.262       .  A
N612        O615   1.262       .  A
C617        C618   1.405       .  A
C617        C622   1.403       .  A
C617        H624   1.088       .  S
C618        C619   1.410       .  A
C619        C620   1.400       .  A
C619        N626   1.429       .  S
C620        C621   1.407       .  A
C620        H625   1.088       .  S
C621        C622   1.414       .  A
C622        N623   1.429       .  S
N623        O627   1.262       .  A
N623        O628   1.262   1_545  A
N626        O630   1.262   1_655  A
C631        C632   1.403       .  A
C631        C636   1.404       .  A
C631        H638   1.091       .  S
C632        C633   1.413       .  A
C633        C634   1.399       .  A
C633        N640   1.429       .  S
C634        C635   1.405       .  A
C634        H639   1.091       .  S
C635        C636   1.417       .  A
C636        N637   1.430       .  S
N637        O641   1.262       .  A
N637        O642   1.262       .  A
N640        O644   1.262       .  A
N640        O643   1.261       .  A
C645        C650   1.400       .  A
C645        H652   1.090       .  S
C646        C647   1.413       .  A
C647        C648   1.400       .  A
C647        N654   1.429       .  S
C648        C649   1.403       .  A
C648        H653   1.090       .  S
C650        N651   1.430       .  S
N651        O655   1.262       .  A
N651        O656   1.262       .  A
N654        O658   1.262       .  A
N654        O657   1.262       .  A
C659        C916   1.400       .  A
C659        H666   1.083       .  S
C660        C913   1.411       .  A
C661        C912   1.413   1_545  A
C661        C662   1.399       .  A
C661        N668   1.430       .  S
C662        C663   1.402       .  A
C662        H667   1.082       .  S
C664        C911   1.400   1_545  A
C664        N917   1.429   1_545  S
N665        C916   1.429       .  S
N665        O669   1.262       .  A
N665        O922   1.262       .  A
N668        O672   1.262       .  A
N668        O923   1.262       .  A
O670        N917   1.262       .  A
O671        N920   1.262       .  A
C673        C674   1.406       .  A
C673        C678   1.400       .  A
C673        H680   1.079       .  S
C674        C675   1.417       .  A
C675        C676   1.405       .  A
C675        N682   1.431       .  S
C676        C677   1.404       .  A
C676        H681   1.079       .  S
C677        C678   1.411       .  A
C678        N679   1.429       .  S
N679        O683   1.261       .  A
N679        O684   1.262       .  A
N682        O686   1.262       .  A
N682        O685   1.262       .  A
C687        C688   1.408       .  A
C687        C692   1.403       .  A
C687        H694   1.082       .  S
C688        C689   1.413       .  A
C689        C690   1.399       .  A
C689        N948   1.429       .  S
C690        C691   1.404       .  A
C690        H695   1.083       .  S
C691        C692   1.411       .  A
C692        N693   1.429       .  S
N693        O697   1.262       .  A
N693        O698   1.262       .  A
N696        C941   1.429       .  S
N696        O700   1.262       .  A
N696        O699   1.262       .  A
C701        C702   1.405       .  A
C701        C706   1.401       .  A
C701        H708   1.084       .  S
C702        C703   1.412       .  A
C703        C704   1.401       .  A
C703        N710   1.429       .  S
C704        C705   1.406       .  A
C704        H709   1.084       .  S
C705        C706   1.412       .  A
N707        O711   1.262       .  A
N707        O712   1.262       .  A
N710        O714   1.262       .  A
N710        O713   1.262       .  A
C715        C716   1.404       .  A
C715        C972   1.401   1_545  A
C715        H722   1.090       .  S
C716        C717   1.410       .  A
C718        C971   1.403   1_545  A
C718        H975   1.090       .  S
C719        C970   1.403       .  A
C720        C967   1.401       .  A
C720        N721   1.429       .  S
N721        O725   1.262       .  A
H723        C970   1.089       .  S
N724        O728   1.262       .  A
C729        C730   1.405       .  A
C729        C734   1.401       .  A
C729        H736   1.090       .  S
C730        C731   1.411       .  A
C731        C732   1.398       .  A
C731        N738   1.429       .  S
C732        C733   1.403       .  A
C732        H737   1.090       .  S
C733        C734   1.412       .  A
C734        N735   1.430       .  S
N735        O739   1.262       .  A
N735        O740   1.262       .  A
N738        O742   1.262       .  A
N738        O741   1.262       .  A
C743        C744   1.406       .  A
C743        C748   1.403       .  A
C743        H750   1.085       .  S
C744        C745   1.413       .  A
C745        C746   1.401       .  A
C745       N1004   1.430       .  S
C746        C747   1.405       .  A
C746        H751   1.085       .  S
C747        C748   1.413       .  A
C748        N749   1.430       .  S
N749        O753   1.262       .  A
N749        O754   1.262       .  A
N752        C997   1.429       .  S
N752        O756   1.262   1_565  A
N752        O755   1.262       .  A
O757       Ni765   1.918       .  S
O757        C767   1.281       .  A
O758       Ni765   1.917       .  S
O758        C768   1.281       .  A
O759       Ni765   1.921       .  S
O759        C769   1.282       .  A
O760       Ni765   1.916       .  S
O760        C770   1.282       .  A
O761       Ni766   1.920       .  S
O761        C770   1.282       .  A
O762       Ni766   1.917       .  S
O762        C769   1.282       .  A
O763       Ni766   1.913       .  S
O763        C768   1.281       .  A
O764       Ni766   1.912       .  S
O764        C767   1.281       .  A
Ni765      Ni766   2.387       .  S
C767        C971   1.478       .  S
C768        C982   1.480       .  S
C769        C999   1.484       .  S
C770        C954   1.485       .  S
O771       Ni779   1.918       .  S
O771        C781   1.282       .  A
O772       Ni779   1.918       .  S
O772        C782   1.281       .  A
O773       Ni779   1.922       .  S
O773        C783   1.282       .  A
O774       Ni779   1.918       .  S
O774        C784   1.281       .  A
O775       Ni780   1.918       .  S
O775        C784   1.283       .  A
O776       Ni780   1.914       .  S
O776        C783   1.281       .  A
O777       Ni780   1.911       .  S
O777        C782   1.281       .  A
O778       Ni780   1.913       .  S
O778        C781   1.280       .  A
Ni779      Ni780   2.386       .  S
C781        C968   1.477       .  S
C782        C985   1.479       .  S
C783        C943   1.482       .  S
C784        C926   1.491       .  S
O785       Ni793   1.915       .  S
O786       Ni793   1.916       .  S
O787       Ni793   1.920   1_455  S
O788       Ni793   1.915       .  S
O788        C798   1.281       .  A
O789       Ni794   1.921       .  S
O790       Ni794   1.920       .  S
O790        C797   1.281       .  A
O791       Ni794   1.917       .  S
O791        C796   1.281       .  A
O792       Ni794   1.916       .  S
O792        C795   1.280       .  A
C795        C912   1.479       .  S
C796        C901   1.479       .  S
C797        C887   1.491       .  S
C798        C957   1.486       .  S
O799       Ni807   1.916       .  S
O800       Ni807   1.918       .  S
O801       Ni807   1.923   1_455  S
O802       Ni807   1.920       .  S
O802        C812   1.282       .  A
O803       Ni808   1.919       .  S
O804       Ni808   1.917       .  S
O804        C811   1.281       .  A
O805       Ni808   1.915       .  S
O805        C810   1.280       .  A
O806       Ni808   1.911       .  S
O806        C809   1.281       .  A
C809        C915   1.479       .  S
C810        C898   1.482       .  S
C811        C929   1.483       .  S
C812        C870   1.485       .  S
O813       Ni821   1.914       .  S
O813        C823   1.281   1_554  A
O814       Ni821   1.915       .  S
O814        C824   1.282   1_554  A
O815       Ni821   1.916       .  S
O816       Ni821   1.915   1_556  S
O816        C826   1.281       .  A
O817       Ni822   1.926       .  S
O818       Ni822   1.923   1_554  S
O818        C825   1.283       .  A
O819       Ni822   1.917       .  S
O820       Ni822   1.913       .  S
C823        C842   1.477       .  S
C824        C859   1.486   1_556  S
C825        C996   1.487       .  S
C826        C873   1.489       .  S
O827       Ni835   1.914       .  S
O828       Ni835   1.919       .  S
O829       Ni835   1.918   1_545  S
O830       Ni835   1.914   1_556  S
O830        C840   1.280       .  A
O831       Ni836   1.924       .  S
O832       Ni836   1.917   1_554  S
O832        C839   1.282       .  A
O833       Ni836   1.914       .  S
O833        C838   1.280   1_556  A
O834       Ni836   1.913       .  S
O834        C837   1.280   1_556  A
C837        C845   1.475       .  S
C838        C856   1.473       .  S
C839        C940   1.486       .  S
C840        C884   1.483       .  S
C841        C846   1.400   1_556  A
C841        H848   1.082       .  S
C843        N850   1.430   1_556  S
C844        H849   1.081       .  S
C845        C846   1.411       .  A
C846        N847   1.429       .  S
N847        O851   1.262   1_554  A
N847        O852   1.262       .  A
N850        O854   1.262       .  A
N850        O853   1.262   1_554  A
C855        C860   1.401       .  A
C855        H862   1.088       .  S
C856        C857   1.408       .  A
C857        C858   1.399       .  A
C857        N864   1.429       .  S
C858        C859   1.407       .  A
C858        H863   1.087       .  S
C860        N861   1.429       .  S
N861        O865   1.262       .  A
N861        O866   1.262       .  A
N864        O868   1.262   1_554  A
N864        O867   1.262       .  A
C869        C870   1.406       .  A
C869        C874   1.403       .  A
C869        H876   1.088       .  S
C870        C871   1.411       .  A
C871        C872   1.401       .  A
C871        N878   1.429       .  S
C872        C873   1.407       .  A
C872        H877   1.088       .  S
C873        C874   1.413       .  A
C874        N875   1.429       .  S
N875        O879   1.262       .  A
N875        O880   1.262       .  A
N878        O882   1.262   1_655  A
C883        C884   1.402       .  A
C883        C888   1.403       .  A
C883        H890   1.091       .  S
C884        C885   1.413       .  A
C885        C886   1.399       .  A
C885        N892   1.429       .  S
C886        C887   1.405       .  A
C886        H891   1.091       .  S
C887        C888   1.417       .  A
C888        N889   1.429       .  S
N889        O893   1.261       .  A
N889        O894   1.262       .  A
N892        O896   1.262       .  A
N892        O895   1.262       .  A
C897        C902   1.400       .  A
C897        H904   1.090       .  S
C898        C899   1.413       .  A
C899        C900   1.400       .  A
C899        N906   1.429       .  S
C900        C901   1.403       .  A
C900        H905   1.090       .  S
C902        N903   1.430       .  S
N903        O907   1.262       .  A
N903        O908   1.262       .  A
N906        O910   1.262       .  A
N906        O909   1.262       .  A
C911        H918   1.083       .  S
C913        C914   1.398       .  A
C913        N920   1.429       .  S
C914        C915   1.403       .  A
C914        H919   1.082       .  S
N917        O921   1.262       .  A
N920        O924   1.262       .  A
C925        C926   1.406       .  A
C925        C930   1.400       .  A
C925        H932   1.079       .  S
C926        C927   1.417       .  A
C927        C928   1.405       .  A
C927        N934   1.431       .  S
C928        C929   1.404       .  A
C928        H933   1.079       .  S
C929        C930   1.412       .  A
C930        N931   1.429       .  S
N931        O935   1.262       .  A
N931        O936   1.262       .  A
N934        O938   1.262       .  A
N934        O937   1.262       .  A
C939        C940   1.407       .  A
C939        C944   1.402       .  A
C939        H946   1.082       .  S
C940        C941   1.413       .  A
C941        C942   1.399       .  A
C942        C943   1.404       .  A
C942        H947   1.083       .  S
C943        C944   1.411       .  A
C944        N945   1.429       .  S
N945        O949   1.262       .  A
N945        O950   1.262       .  A
N948        O952   1.262   1_545  A
N948        O951   1.262       .  A
C953        C954   1.405       .  A
C953        C958   1.401       .  A
C953        H960   1.084       .  S
C954        C955   1.412       .  A
C955        C956   1.401       .  A
C955        N962   1.429       .  S
C956        C957   1.406       .  A
C956        H961   1.084       .  S
C957        C958   1.412       .  A
N959        O963   1.262       .  A
N959        O964   1.262       .  A
N962        O966   1.262       .  A
N962        O965   1.262       .  A
C967        C968   1.404       .  A
C967        H974   1.090       .  S
C968        C969   1.409       .  A
C972        N973   1.429       .  S
N973        O977   1.262       .  A
N976        O980   1.262       .  A
C981        C982   1.405       .  A
C981        C986   1.401       .  A
C981        H988   1.090       .  S
C982        C983   1.411       .  A
C983        C984   1.398       .  A
C983        N990   1.429       .  S
C984        C985   1.403       .  A
C984        H989   1.090       .  S
C985        C986   1.412       .  A
C986        N987   1.430       .  S
N987        O991   1.262       .  A
N987        O992   1.262       .  A
N990        O994   1.262       .  A
N990        O993   1.262       .  A
C995        C996   1.406       .  A
C995       C1000   1.403       .  A
C995       H1002   1.085       .  S
C996        C997   1.414       .  A
C997        C998   1.400       .  A
C998        C999   1.404       .  A
C998       H1003   1.085       .  S
C999       C1000   1.412       .  A
C1000      N1001   1.430       .  S
N1001      O1005   1.262       .  A
N1001      O1006   1.262       .  A
N1004      O1008   1.262       .  A
N1004      O1007   1.262       .  A
