geometry optimzed in LAMMPS
_audit_creation_date              2020-12-01 
_audit_creation_method            'lammps2cif' 
_symmetry_space_group_name_H-M    'P1' 
_symmetry_Int_Tables_number       1 
_symmetry_cell_setting            triclinic 
loop_ 
_symmetry_equiv_pos_as_xyz 
  x,y,z 
_cell_length_a                    45.23668205 
_cell_length_b                    44.891846575536924 
_cell_length_c                    47.60826258200583 
_cell_angle_alpha                 90.02366423310474 
_cell_angle_beta                  90.01531513967566 
_cell_angle_gamma                 121.27393301382432 
loop_ 
_atom_site_label 
_atom_site_type_symbol 
_atom_site_fract_x 
_atom_site_fract_y 
_atom_site_fract_z 
_atom_site_charge 
O1          O  0.46911696  0.57512424  0.18235798    -0.57100
C2          C  0.43845748  0.62183977  0.24253714     0.75600
O3          O  0.35520121  0.52584270  0.20012821    -0.58200
C4          C  0.45346335  0.54787981  0.16734309     0.75500
C5          C  0.42641250  0.52031895  0.25795235     0.77900
Cd6        Cd  0.41817063  0.55866655  0.21267522     1.37500
O7          O  0.45463629  0.62252189  0.22055238    -0.57100
O8          O  0.45126500  0.54298293  0.24332171    -0.55900
C9          C  0.35725376  0.54909603  0.18365033     0.77900
O10         O  0.39649919  0.51358364  0.25084107    -0.58200
O11         O  0.41331772  0.59250360  0.24989499    -0.56700
O12         O  0.42225167  0.52622716  0.17354040    -0.56700
O13         O  0.38707106  0.57594470  0.18084876    -0.55900
O14         O  0.09706340  0.59249751  0.07262608    -0.57100
C15         C  0.17928084  0.63119344  0.01177252     0.75600
O16         O  0.15098117  0.53530301  0.05531019    -0.58200
C17         C  0.07299131  0.56258844  0.08045101     0.75500
C18         C  0.08279047  0.53794294  0.49075957     0.77900
Cd19       Cd  0.12470591  0.57037611  0.04007431     1.37500
O20         O  0.15802289  0.63350025  0.02772027    -0.57100
O21         O  0.09053719  0.56762084  0.99986581    -0.55900
C22         C  0.16808743  0.55575677  0.07540358     0.77900
O23         O  0.09441753  0.52216043  0.00484106    -0.58200
O24         O  0.17504475  0.60116739  0.00956021    -0.56700
O25         O  0.07254475  0.53690645  0.06896308    -0.56700
O26         O  0.16393025  0.58123428  0.07884010    -0.55900
O27         O  0.42226781  0.90519322  0.34083926    -0.57100
C28         C  0.37432027  0.82773248  0.40435192     0.75600
O29         O  0.46841058  0.84045543  0.36460747    -0.58200
C30         C  0.45107885  0.91947670  0.32812142     0.75500
C31         C  0.47903538  0.92162586  0.41622766     0.77900
Cd32       Cd  0.43738571  0.87182205  0.37370711     1.37500
O33         O  0.37374103  0.84104283  0.38101977    -0.57100
O34         O  0.45367717  0.92097093  0.40433383    -0.55900
C35         C  0.44665227  0.81958400  0.34679659     0.77900
O36         O  0.48572670  0.89883431  0.40812194    -0.58200
O37         O  0.40385572  0.83594596  0.41351466    -0.56700
O38         O  0.47238250  0.91113052  0.33640141    -0.56700
O39         O  0.42106981  0.82302888  0.34203801    -0.55900
O40         O  0.89761581  0.43487512  0.31880544    -0.57100
C41         C  0.81629952  0.38894074  0.25968388     0.75600
O42         O  0.83272192  0.48364165  0.30211041    -0.58200
C43         C  0.91028848  0.46151058  0.33452049     0.75500
C44         C  0.91041210  0.48938234  0.24474867     0.77900
Cd45       Cd  0.86271761  0.45154470  0.29010490     1.37500
O46         O  0.83214431  0.38776756  0.28124612    -0.57100
O47         O  0.90885532  0.46377719  0.25724502    -0.55900
C48         C  0.81156477  0.46076468  0.31920880     0.77900
O49         O  0.89053219  0.49921767  0.25408664    -0.58200
O50         O  0.82194248  0.41866567  0.25281419    -0.56700
O51         O  0.90063860  0.48296359  0.32998229    -0.56700
O52         O  0.81477292  0.43460748  0.32265685    -0.55900
O53         O  0.50663779  0.41514548  0.42903057    -0.57100
C54         C  0.55199120  0.37704114  0.48918517     0.75600
O55         O  0.61984779  0.47233634  0.44994046    -0.58200
C56         C  0.51442194  0.44525675  0.42073607     0.75500
C57         C  0.54474786  0.46790113  0.01021875     0.77900
Cd58       Cd  0.55690996  0.43685098  0.46183297     1.37500
O59         O  0.52887166  0.37322833  0.47186251    -0.57100
O60         O  0.52292600  0.43797766  0.50079542    -0.55900
C61         C  0.61678579  0.45511710  0.42779828     0.77900
O62         O  0.57321591  0.48427369  0.49699093    -0.58200
O63         O  0.57668036  0.40791771  0.49311586    -0.56700
O64         O  0.54096129  0.47063830  0.43197835    -0.56700
O65         O  0.58652169  0.43084804  0.42167767    -0.55900
O66         O  0.59383385  0.11154025  0.08510002    -0.57100
C67         C  0.63085033  0.18990938  0.14739664     0.75600
O68         O  0.53572733  0.16114981  0.10768035    -0.58200
C69         C  0.56441218  0.08630915  0.07787987     0.75500
C70         C  0.53918516  0.09170579  0.16873113     0.77900
Cd71       Cd  0.57094791  0.13494327  0.12024840     1.37500
O72         O  0.63320295  0.16753561  0.13278424    -0.57100
O73         O  0.56951660  0.10135935  0.16071246    -0.55900
C74         C  0.55624100  0.18051005  0.08851574     0.77900
O75         O  0.52257166  0.10176947  0.15397720    -0.58200
O76         O  0.60110316  0.18577922  0.14966991    -0.56700
O77         O  0.53853568  0.08308788  0.09092053    -0.56700
O78         O  0.58173776  0.17697296  0.08368436    -0.55900
C79         C  0.55212576  0.20678889  0.07268996    -0.11200
C80         C  0.52505720  0.21325840  0.07762170     0.04300
C81         C  0.52396317  0.23952566  0.06253828    -0.11800
C82         C  0.54980229  0.26024694  0.04305280     0.19100
C83         C  0.57704498  0.25441442  0.03847922    -0.08800
C84         C  0.57772701  0.22763447  0.05280743    -0.01800
H85         H  0.50333328  0.24449294  0.06659019     0.05600
C86         C  0.54942099  0.28955130  0.02926809     0.21100
H87         H  0.59913908  0.22386340  0.04883773     0.10800
C88         C  0.56735664  0.32246177  0.04187839    -0.15100
C89         C  0.56825639  0.35115528  0.02946946     0.03800
C90         C  0.55073669  0.34712652  0.00374604    -0.10500
C91         C  0.53238119  0.31384968  0.49137858    -0.00500
C92         C  0.53180741  0.28526166  0.00383421    -0.05600
H93         H  0.58081075  0.32582649  0.06156408     0.06800
H94         H  0.51896287  0.31014203  0.47163557     0.10200
Br95       Br  0.61481188  0.28349711  0.01386470    -0.05300
Br96       Br  0.48972155  0.18891065  0.10538405    -0.02300
Br97       Br  0.59279417  0.39444423  0.04969491     0.00600
Br98       Br  0.50735533  0.24101036  0.48518385    -0.03800
C99         C  0.64689240  0.46152792  0.41056485    -0.11200
C100        C  0.64365377  0.45337076  0.38157092     0.04300
C101        C  0.67150199  0.45543831  0.36687590    -0.11800
C102        C  0.70278653  0.46547176  0.38048529     0.19100
C103        C  0.70660268  0.47505405  0.40902155    -0.08800
C104        C  0.67887171  0.47319208  0.42377609    -0.01800
H105        H  0.66852235  0.44852596  0.34480575     0.05600
C106        C  0.73065903  0.46454220  0.36485536     0.21100
H107        H  0.68195087  0.47961470  0.44593986     0.10800
C108        C  0.75175218  0.49158353  0.34627705    -0.15100
C109        C  0.77831943  0.49134464  0.33117457     0.03800
C110        C  0.78416665  0.46341306  0.33457153    -0.10500
C111        C  0.76254199  0.43627774  0.35317078    -0.00500
C112        C  0.73602654  0.43657481  0.36802924    -0.05600
H113        H  0.74752896  0.51305739  0.34354710     0.06800
H114        H  0.76598767  0.41435011  0.35613847     0.10200
Br115      Br  0.74905566  0.49009872  0.42873944    -0.05300
Br116      Br  0.60226933  0.44003554  0.36059392    -0.02300
Br117      Br  0.80493864  0.52990369  0.30633328     0.00600
Br118      Br  0.70711850  0.39765144  0.39190454    -0.03800
C119        C  0.79267344  0.35784310  0.24273622    -0.11200
C120        C  0.77231464  0.32420475  0.25440976     0.04300
C121        C  0.74816955  0.29660186  0.23756549    -0.11800
C122        C  0.74456625  0.30158780  0.20893295     0.19100
C123        C  0.76607297  0.33478780  0.19703706    -0.08800
C124        C  0.78947152  0.36251440  0.21395196    -0.01800
H125        H  0.73150545  0.27128776  0.24702472     0.05600
C126        C  0.71641948  0.27288516  0.19236488     0.21100
H127        H  0.80534246  0.38796945  0.20446664     0.10800
C128        C  0.69074569  0.27783801  0.18083717    -0.15100
C129        C  0.66340471  0.25160562  0.16534095     0.03800
C130        C  0.66092340  0.21917311  0.16159718    -0.10500
C131        C  0.68682432  0.21429685  0.17277919    -0.00500
C132        C  0.71432568  0.24073268  0.18822073    -0.05600
H133        H  0.69202981  0.30241544  0.18390259     0.06800
H134        H  0.68525918  0.18954571  0.17006083     0.10200
Br135      Br  0.76499472  0.34359827  0.15767915    -0.05300
Br136      Br  0.77451391  0.31459023  0.29337686    -0.02300
Br137      Br  0.63141582  0.26252018  0.14867045     0.00600
Br138      Br  0.74844396  0.23172230  0.20284778    -0.03800
C139        C  0.46012260  0.94431974  0.30454052    -0.11200
C140        C  0.44649304  0.96625240  0.30154536     0.04300
C141        C  0.45785131  0.99042865  0.27942651    -0.11800
C142        C  0.48279012  0.99331970  0.26024101     0.19100
C143        C  0.49610085  0.97129038  0.26314046    -0.08800
C144        C  0.48475734  0.94716460  0.28502310    -0.01800
H145        H  0.44777889  0.00758506  0.27753227     0.05600
C146        C  0.49574655  0.02014588  0.23788122     0.21100
H147        H  0.49546240  0.93054117  0.28680593     0.10800
C148        C  0.52990490  0.04841144  0.23934168    -0.15100
C149        C  0.54421755  0.07256163  0.21741214     0.03800
C150        C  0.52396802  0.06900131  0.19360345    -0.10500
C151        C  0.48929331  0.04158845  0.19275920    -0.00500
C152        C  0.47527044  0.01699163  0.21447776    -0.05600
H153        H  0.54577469  0.05118732  0.25737430     0.06800
H154        H  0.47354577  0.03827140  0.17451062     0.10200
Br155      Br  0.52966342  0.97283770  0.23757329    -0.05300
Br156      Br  0.41457751  0.96650927  0.32797134    -0.02300
Br157      Br  0.59138196  0.11009424  0.22143962     0.00600
Br158      Br  0.42907166  0.97797044  0.21021053    -0.03800
C159        C  0.49849494  0.94735306  0.43884303    -0.11200
C160        C  0.52819629  0.95094390  0.45222397     0.04300
C161        C  0.54311683  0.97386810  0.47503161    -0.11800
C162        C  0.52927388  0.99366013  0.48448816     0.19100
C163        C  0.50103273  0.99153997  0.47034271    -0.08800
C164        C  0.48586788  0.96854055  0.44792981    -0.01800
H165        H  0.56527886  0.97592516  0.48567091     0.05600
C166        C  0.54308502  0.01550381  0.00982715     0.21100
H167        H  0.46357476  0.96691021  0.43791246     0.10800
C168        C  0.56956249  0.05044304  0.00710152    -0.15100
C169        C  0.57813288  0.07372226  0.02952204     0.03800
C170        C  0.55987953  0.06195705  0.05512119    -0.10500
C171        C  0.53441630  0.02655070  0.05809900    -0.00500
C172        C  0.52618028  0.00330822  0.03577193    -0.05600
H173        H  0.58220219  0.06003847  0.98699558     0.08000
H174        H  0.52026848  0.01710470  0.07764214     0.10200
Br175      Br  0.48187630  0.01923580  0.48136248    -0.05300
Br176      Br  0.55012206  0.92606926  0.44061725    -0.02300
Br177      Br  0.61183990  0.12188559  0.02270192     0.00600
Br178      Br  0.49025024  0.95550755  0.54089691    -0.03800
C179        C  0.06122272  0.52353573  0.46499487    -0.11200
C180        C  0.04228059  0.48760044  0.45817762     0.04300
C181        C  0.01943485  0.47585214  0.43521193    -0.11800
C182        C  0.01544545  0.49933830  0.41861019     0.19100
C183        C  0.03564055  0.53514878  0.42435482    -0.08800
C184        C  0.05811731  0.54692217  0.44730706    -0.01800
H185        H  0.00390685  0.44819308  0.43081797     0.05600
C186        C  0.98773963  0.48626365  0.39725940     0.21100
H187        H  0.07277575  0.57463995  0.45161472     0.10800
C188        C  0.95614176  0.48285465  0.40472301    -0.15100
C189        C  0.93034842  0.47414075  0.38463416     0.03800
C190        C  0.93568985  0.46788664  0.35664786    -0.10500
C191        C  0.96689398  0.47020954  0.34933344    -0.00500
C192        C  0.99311733  0.47991281  0.36932816    -0.05600
H193        H  0.95194113  0.48797637  0.42614790     0.06800
H194        H  0.97147450  0.46601637  0.32775461     0.10200
Br195      Br  0.03242713  0.56881840  0.40181993    -0.05300
Br196      Br  0.04450833  0.45290745  0.48002109    -0.02300
Br197      Br  0.88820256  0.47083215  0.39649114     0.00600
Br198      Br  0.03659891  0.48658915  0.35729979    -0.03800
C199        C  0.04684236  0.55708499  0.10214273    -0.11200
C200        C  0.05309760  0.58186880  0.12333139     0.04300
C201        C  0.02923009  0.57318488  0.14527289    -0.11800
C202        C  0.99896490  0.54021508  0.14658227     0.19100
C203        C  0.99179264  0.51620194  0.12480794    -0.08800
C204        C  0.01556245  0.52467653  0.10294952    -0.01800
H205        H  0.03505184  0.59170754  0.16209242     0.05600
C206        C  0.97749376  0.52962588  0.17238354     0.21100
H207        H  0.00989948  0.50534372  0.08686881     0.10800
C208        C  0.95034587  0.53596132  0.17519668    -0.15100
C209        C  0.92867289  0.52421672  0.19892690     0.03800
C210        C  0.93417884  0.50580471  0.22041115    -0.10500
C211        C  0.96200607  0.50036238  0.21759165    -0.00500
C212        C  0.98346737  0.51206421  0.19399447    -0.05600
H213        H  0.94551101  0.54936799  0.15856764     0.06800
H214        H  0.96692312  0.48642703  0.23370737     0.10200
Br215      Br  0.95063975  0.47078213  0.12491872    -0.05300
Br216      Br  0.09482798  0.62676826  0.12523566    -0.02300
Br217      Br  0.89081387  0.53205511  0.19960221     0.00600
Br218      Br  0.02033089  0.50278969  0.19180275    -0.03800
C219        C  0.34265709  0.80328556  0.42027746    -0.11200
C220        C  0.31083126  0.78012247  0.40696712     0.04300
C221        C  0.28311863  0.75452841  0.42279890    -0.11800
C222        C  0.28649156  0.75140482  0.45175335     0.19100
C223        C  0.31777960  0.77495680  0.46516895    -0.08800
C224        C  0.34539198  0.80070268  0.44950491    -0.01800
H225        H  0.25926446  0.73602305  0.41228905     0.05600
C226        C  0.25871188  0.72104232  0.46696844     0.21100
H227        H  0.36955499  0.81807313  0.46013969     0.10800
C228        C  0.25774229  0.68943454  0.46559106    -0.15100
C229        C  0.23254690  0.65998647  0.48003260     0.03800
C230        C  0.20722587  0.66180947  0.49633332    -0.10500
C231        C  0.20843863  0.69379983  0.49754244    -0.00500
C232        C  0.23386240  0.72319681  0.48305325    -0.05600
H233        H  0.27701249  0.68777995  0.45331791     0.06800
H234        H  0.18946071  0.69603383  0.50970705     0.10200
Br235      Br  0.32474198  0.77126548  0.00446789    -0.05300
Br236      Br  0.30449001  0.77931289  0.36703774    -0.02300
Br237      Br  0.23549550  0.61893971  0.97642689     0.00600
Br238      Br  0.23369507  0.76572733  0.48559357    -0.03800
C239        C  0.53624206  0.48212178  0.03518404    -0.11200
C240        C  0.55650993  0.51720158  0.04426636     0.04300
C241        C  0.54473496  0.52919125  0.06629913    -0.11800
C242        C  0.51358857  0.50666667  0.08023412     0.19100
C243        C  0.49449989  0.47134077  0.07235947    -0.08800
C244        C  0.50565615  0.45952978  0.04998723    -0.01800
H245        H  0.55976253  0.55637121  0.07238053     0.05600
C246        C  0.50031309  0.52042822  0.10198775     0.21100
H247        H  0.49002759  0.43231764  0.04412554     0.10800
C248        C  0.46858873  0.51819970  0.09732026    -0.15100
C249        C  0.45344103  0.52789913  0.11813311     0.03800
C250        C  0.47051819  0.54102085  0.14398577    -0.10500
C251        C  0.50315888  0.54509973  0.14815591    -0.00500
C252        C  0.51793312  0.53452144  0.12751472    -0.05600
H253        H  0.45511359  0.50800271  0.07757959     0.06800
H254        H  0.51639797  0.55490886  0.16803225     0.10200
Br255      Br  0.45333284  0.43784247  0.09193787    -0.05300
Br256      Br  0.60014331  0.55041433  0.52776215    -0.02300
Br257      Br  0.40958076  0.52312266  0.10997550     0.00600
Br258      Br  0.56069121  0.53715603  0.13602274    -0.03800
C259        C  0.43305955  0.50352397  0.28208952    -0.11200
C260        C  0.41197346  0.49175869  0.30637903     0.04300
C261        C  0.42177952  0.47943902  0.32957545    -0.11800
C262        C  0.45246307  0.47879891  0.32913738     0.19100
C263        C  0.47317427  0.49002464  0.30488564    -0.08800
C264        C  0.46341453  0.50211763  0.28172469    -0.01800
H265        H  0.40598112  0.47135134  0.34836114     0.05600
C266        C  0.46416782  0.46880133  0.35460368     0.21100
H267        H  0.48014628  0.51117658  0.26347852     0.10800
C268        C  0.45719037  0.43465537  0.35751525    -0.15100
C269        C  0.47194539  0.42570146  0.37943840     0.03800
C270        C  0.49451957  0.45145232  0.39889267    -0.10500
C271        C  0.50017490  0.48529697  0.39636096    -0.00500
C272        C  0.48523814  0.49400482  0.37460223    -0.05600
H273        H  0.44108955  0.41514148  0.34208279     0.06800
H274        H  0.51698851  0.50549307  0.41106159     0.10200
Br275      Br  0.51602275  0.49093099  0.30306061    -0.05300
Br276      Br  0.37138515  0.49478093  0.31032226    -0.02300
Br277      Br  0.46174964  0.37853306  0.38015541     0.00600
Br278      Br  0.49569484  0.54118003  0.37215665    -0.03800
C279        C  0.44997480  0.79220736  0.33217299    -0.11200
C280        C  0.48125411  0.79216067  0.33091706     0.04300
C281        C  0.48239594  0.76573817  0.31617442    -0.11800
C282        C  0.45294524  0.73928730  0.30260185     0.19100
C283        C  0.42180473  0.73898234  0.30399363    -0.08800
C284        C  0.42054090  0.76529443  0.31852268    -0.01800
H285        H  0.50639682  0.76588388  0.31516819     0.05600
C286        C  0.45452631  0.71153550  0.28748047     0.21100
H287        H  0.39619159  0.76446201  0.31925822     0.10800
C288        C  0.44785488  0.68174021  0.30226968    -0.15100
C289        C  0.44414044  0.65275800  0.28806518     0.03800
C290        C  0.44735400  0.65352858  0.25852763    -0.10500
C291        C  0.45614084  0.68422855  0.24395397    -0.00500
C292        C  0.45938374  0.71304479  0.25821647    -0.05600
H293        H  0.44433303  0.68060776  0.32483303     0.06800
H294        H  0.45864292  0.68516527  0.22129808     0.10200
Br295      Br  0.38026418  0.70277270  0.28655193    -0.05300
Br296      Br  0.52365666  0.82755064  0.34779854    -0.02300
Br297      Br  0.43490418  0.61301367  0.31017225     0.00600
Br298      Br  0.46827742  0.75311873  0.23688904    -0.03800
C299        C  0.19253066  0.55106872  0.09335540    -0.11200
C300        C  0.21069440  0.57358363  0.11625536     0.04300
C301        C  0.23598139  0.57043940  0.13061373    -0.11800
C302        C  0.24342894  0.54485119  0.12326674     0.19100
C303        C  0.22428496  0.52122443  0.10165581    -0.08800
C304        C  0.19932143  0.52456795  0.08678913    -0.01800
H305        H  0.25024735  0.58836742  0.14755405     0.05600
C306        C  0.27215930  0.54424915  0.13782159     0.21100
H307        H  0.18560881  0.50666688  0.06971774     0.10800
C308        C  0.26535812  0.52329733  0.16165941    -0.15100
C309        C  0.29235577  0.52392118  0.17681310     0.03800
C310        C  0.32707741  0.54579958  0.16802589    -0.10500
C311        C  0.33354639  0.56649100  0.14392009    -0.00500
C312        C  0.30659975  0.56594747  0.12899281    -0.05600
H313        H  0.23895220  0.50692940  0.16885213     0.06800
H314        H  0.35982262  0.58349675  0.13666730     0.10200
Br315      Br  0.23192584  0.48440087  0.09160591    -0.05300
Br316      Br  0.20279143  0.60928082  0.12972561    -0.02300
Br317      Br  0.27998516  0.49620905  0.21029774     0.00600
Br318      Br  0.31810790  0.59583459  0.09689724    -0.03800
O319        O  0.46911753  0.57512451  0.68235798    -0.57100
C320        C  0.43845813  0.62184027  0.74253689     0.75600
O321        O  0.35520171  0.52584343  0.70012812    -0.58200
C322        C  0.45346381  0.54788019  0.66734298     0.75500
C323        C  0.42641282  0.52031932  0.75795238     0.77900
Cd324      Cd  0.41817114  0.55866700  0.71267522     1.37500
O325        O  0.45463701  0.62252219  0.72055225    -0.57100
O326        O  0.45126549  0.54298373  0.74332213    -0.55900
C327        C  0.35725435  0.54909681  0.68365027     0.77900
O328        O  0.39649953  0.51358378  0.75084078    -0.58200
O329        O  0.41331811  0.59250423  0.74989470    -0.56700
O330        O  0.42225207  0.52622768  0.67354023    -0.56700
O331        O  0.38707172  0.57594538  0.68084867    -0.55900
O332        O  0.09706317  0.59249783  0.57262617    -0.57100
C333        C  0.17928074  0.63119374  0.51177282     0.75600
O334        O  0.15098186  0.53530385  0.55531011    -0.58200
C335        C  0.07299129  0.56258877  0.58045133     0.75500
C336        C  0.08279093  0.53794277  0.99075910     0.77900
Cd337      Cd  0.12470575  0.57037636  0.54007461     1.37500
O338        O  0.15802313  0.63350062  0.52772095    -0.57100
O339        O  0.09053705  0.56762116  0.49986615    -0.55900
C340        C  0.16808772  0.55575744  0.57540371     0.77900
O341        O  0.09441697  0.52216052  0.50484156    -0.58200
O342        O  0.17504433  0.60116760  0.50956015    -0.56700
O343        O  0.07254489  0.53690673  0.56896364    -0.56700
O344        O  0.16392976  0.58123441  0.57884056    -0.55900
O345        O  0.42226800  0.90519342  0.84083929    -0.57100
C346        C  0.37432048  0.82773227  0.90435167     0.75600
O347        O  0.46841096  0.84045565  0.86460738    -0.58200
C348        C  0.45107921  0.91947729  0.82812167     0.75500
C349        C  0.47903523  0.92162565  0.91622792     0.77900
Cd350      Cd  0.43738604  0.87182227  0.87370713     1.37500
O351        O  0.37374128  0.84104300  0.88101972    -0.57100
O352        O  0.45367694  0.92097066  0.90433419    -0.55900
C353        C  0.44665288  0.81958459  0.84679620     0.77900
O354        O  0.48572684  0.89883439  0.90812193    -0.58200
O355        O  0.40385591  0.83594557  0.91351433    -0.56700
O356        O  0.47238303  0.91113147  0.83640187    -0.56700
O357        O  0.42107064  0.82302976  0.84203745    -0.55900
O358        O  0.89761599  0.43487537  0.81880531    -0.57100
C359        C  0.81629983  0.38894123  0.75968349     0.75600
O360        O  0.83272228  0.48364221  0.80211082    -0.58200
C361        C  0.91028855  0.46151068  0.83452052     0.75500
C362        C  0.91041221  0.48938302  0.74474889     0.77900
Cd363      Cd  0.86271759  0.45154497  0.79010488     1.37500
O364        O  0.83214415  0.38776792  0.78124602    -0.57100
O365        O  0.90885536  0.46377778  0.75724511    -0.55900
C366        C  0.81156461  0.46076483  0.81920871     0.77900
O367        O  0.89053233  0.49921837  0.75408694    -0.58200
O368        O  0.82194303  0.41866620  0.75281364    -0.56700
O369        O  0.90063841  0.48296352  0.82998255    -0.56700
O370        O  0.81477233  0.43460729  0.82265631    -0.55900
O371        O  0.50663787  0.41514544  0.92903045    -0.57100
C372        C  0.55199109  0.37704116  0.98918518     0.75600
O373        O  0.61984787  0.47233632  0.94994074    -0.58200
C374        C  0.51442194  0.44525672  0.92073604     0.75500
C375        C  0.54474786  0.46790107  0.51021869     0.77900
Cd376      Cd  0.55690997  0.43685099  0.96183304     1.37500
O377        O  0.52887151  0.37322844  0.97186260    -0.57100
O378        O  0.52292612  0.43797765  0.00079556    -0.55900
C379        C  0.61678582  0.45511733  0.92779839     0.77900
O380        O  0.57321583  0.48427389  0.99699088    -0.58200
O381        O  0.57668042  0.40791767  0.99311578    -0.56700
O382        O  0.54096117  0.47063825  0.93197846    -0.56700
O383        O  0.58652169  0.43084841  0.92167767    -0.55900
O384        O  0.59383442  0.11154045  0.58509972    -0.57100
C385        C  0.63085162  0.18990985  0.64739585     0.75600
O386        O  0.53572802  0.16115004  0.60768045    -0.58200
C387        C  0.56441272  0.08630942  0.57787958     0.75500
C388        C  0.53918589  0.09170631  0.66873118     0.77900
Cd389      Cd  0.57094872  0.13494348  0.62024827     1.37500
O390        O  0.63320391  0.16753554  0.63278392    -0.57100
O391        O  0.56951731  0.10135976  0.66071256    -0.55900
C392        C  0.55624159  0.18051022  0.58851576     0.77900
O393        O  0.52257251  0.10177008  0.65397716    -0.58200
O394        O  0.60110459  0.18578004  0.64966900    -0.56700
O395        O  0.53853629  0.08308808  0.59092041    -0.56700
O396        O  0.58173823  0.17697297  0.58368424    -0.55900
C397        C  0.55212639  0.20678913  0.57269001    -0.11200
C398        C  0.52505790  0.21325873  0.57762186     0.04300
C399        C  0.52396381  0.23952592  0.56253840    -0.11800
C400        C  0.54980284  0.26024717  0.54305285     0.19100
C401        C  0.57704558  0.25441470  0.53847921    -0.08800
C402        C  0.57772750  0.22763466  0.55280738    -0.01800
H403        H  0.50333389  0.24449324  0.56659037     0.05600
C404        C  0.54942146  0.28955147  0.52926812     0.21100
H405        H  0.59913958  0.22386347  0.54883759     0.10800
C406        C  0.56735676  0.32246187  0.54187853    -0.15100
C407        C  0.56825647  0.35115536  0.52946958     0.03800
C408        C  0.55073693  0.34712657  0.50374604    -0.10500
C409        C  0.53238072  0.31384962  0.99137867    -0.00500
C410        C  0.53180806  0.28526183  0.50383416    -0.05600
H411        H  0.58081071  0.32582654  0.56156435     0.06800
H412        H  0.51896222  0.31014197  0.97163567     0.10200
Br413      Br  0.61481254  0.28349750  0.51386464    -0.05300
Br414      Br  0.48972249  0.18891111  0.60538437    -0.02300
Br415      Br  0.59279408  0.39444437  0.54969499     0.00600
Br416      Br  0.50735416  0.24101009  0.98518398    -0.03800
C417        C  0.64689240  0.46152819  0.91056488    -0.11200
C418        C  0.64365380  0.45337153  0.88157084     0.04300
C419        C  0.67150191  0.45543898  0.86687574    -0.11800
C420        C  0.70278629  0.46547175  0.88048514     0.19100
C421        C  0.70660245  0.47505351  0.90902153    -0.08800
C422        C  0.67887159  0.47319172  0.92377615    -0.01800
H423        H  0.66852231  0.44852705  0.84480545     0.05600
C424        C  0.73065863  0.46454207  0.86485507     0.21100
H425        H  0.68195069  0.47961390  0.94593996     0.10800
C426        C  0.75175281  0.49158424  0.84627776    -0.15100
C427        C  0.77832010  0.49134542  0.83117531     0.03800
C428        C  0.78416634  0.46341307  0.83457133    -0.10500
C429        C  0.76254066  0.43627693  0.85316960    -0.00500
C430        C  0.73602516  0.43657393  0.86802803    -0.05600
H431        H  0.74753045  0.51305874  0.84354862     0.06800
H432        H  0.76598562  0.41434876  0.85613660     0.10200
Br433      Br  0.74905525  0.49009707  0.92873950    -0.05300
Br434      Br  0.60226962  0.44003730  0.86059381    -0.02300
Br435      Br  0.80494098  0.52990594  0.80633569     0.00600
Br436      Br  0.70711584  0.39764960  0.89190209    -0.03800
C437        C  0.79267399  0.35784367  0.74273571    -0.11200
C438        C  0.77231405  0.32420561  0.75440942     0.04300
C439        C  0.74816921  0.29660278  0.73756496    -0.11800
C440        C  0.74456721  0.30158858  0.70893212     0.19100
C441        C  0.76607489  0.33478830  0.69703616    -0.08800
C442        C  0.78947332  0.36251484  0.71395118    -0.01800
H443        H  0.73150436  0.27128891  0.74702419     0.05600
C444        C  0.71642077  0.27288602  0.69236376     0.21100
H445        H  0.80534510  0.38796968  0.70446580     0.10800
C446        C  0.69074763  0.27783920  0.68083504    -0.15100
C447        C  0.66340675  0.25160670  0.66533877     0.03800
C448        C  0.66092488  0.21917378  0.66159606    -0.10500
C449        C  0.68682522  0.21429726  0.67277904    -0.00500
C450        C  0.71432649  0.24073317  0.68822058    -0.05600
H451        H  0.69203216  0.30241690  0.68389972     0.06800
H452        H  0.68525966  0.18954578  0.67006148     0.10200
Br453      Br  0.76499810  0.34359825  0.65767796    -0.05300
Br454      Br  0.77451151  0.31459147  0.79337693    -0.02300
Br455      Br  0.63141889  0.26252165  0.64866658     0.00600
Br456      Br  0.74844409  0.23172249  0.70284892    -0.03800
C457        C  0.46012296  0.94432042  0.80454079    -0.11200
C458        C  0.44649302  0.96625273  0.80154539     0.04300
C459        C  0.45785137  0.99042907  0.77942655    -0.11800
C460        C  0.48279051  0.99332039  0.76024124     0.19100
C461        C  0.49610156  0.97129137  0.76314090    -0.08800
C462        C  0.48475813  0.94716563  0.78502360    -0.01800
H463        H  0.44777872  0.00758523  0.77753209     0.05600
C464        C  0.49574695  0.02014663  0.73788147     0.21100
H465        H  0.49546342  0.93054254  0.78680662     0.10800
C466        C  0.52990539  0.04841215  0.73934191    -0.15100
C467        C  0.54421813  0.07256224  0.71741230     0.03800
C468        C  0.52396864  0.06900192  0.69360357    -0.10500
C469        C  0.48929384  0.04158923  0.69275944    -0.00500
C470        C  0.47527082  0.01699247  0.71447802    -0.05600
H471        H  0.54577518  0.05118801  0.75737450     0.06800
H472        H  0.47354625  0.03827222  0.67451083     0.10200
Br473      Br  0.52966454  0.97283895  0.73757403    -0.05300
Br474      Br  0.41457644  0.96650870  0.82797077    -0.02300
Br475      Br  0.59138268  0.11009469  0.72143971     0.00600
Br476      Br  0.42907186  0.97797147  0.71021066    -0.03800
C477        C  0.49849458  0.94735260  0.93884352    -0.11200
C478        C  0.52819628  0.95094385  0.95222413     0.04300
C479        C  0.54311670  0.97386785  0.97503189    -0.11800
C480        C  0.52927338  0.99365939  0.98448884     0.19100
C481        C  0.50103194  0.99153894  0.97034366    -0.08800
C482        C  0.48586710  0.96853960  0.94793071    -0.01800
H483        H  0.56527905  0.97592521  0.98567095     0.05600
C484        C  0.54308544  0.01550453  0.50982648     0.21100
H485        H  0.46357380  0.96690903  0.93791358     0.10800
C486        C  0.56956290  0.05044377  0.50710096    -0.15100
C487        C  0.57813330  0.07372284  0.52952159     0.03800
C488        C  0.55987996  0.06195749  0.55512073    -0.10500
C489        C  0.53441665  0.02655118  0.55809837    -0.00500
C490        C  0.52618062  0.00330885  0.53577122    -0.05600
H491        H  0.58220267  0.06003931  0.48699506     0.08000
H492        H  0.52026874  0.01710505  0.57764150     0.10200
Br493      Br  0.48187522  0.01923442  0.98136382    -0.05300
Br494      Br  0.55012283  0.92607022  0.94061670    -0.02300
Br495      Br  0.61184067  0.12188610  0.52270179     0.00600
Br496      Br  0.49025005  0.95550685  0.04089786    -0.03800
C497        C  0.06122342  0.52353560  0.96499432    -0.11200
C498        C  0.04228080  0.48760022  0.95817743     0.04300
C499        C  0.01943504  0.47585199  0.93521176    -0.11800
C500        C  0.01544616  0.49933824  0.91860967     0.19100
C501        C  0.03564196  0.53514880  0.92435386    -0.08800
C502        C  0.05811868  0.54692215  0.94730612    -0.01800
H503        H  0.00390649  0.44819279  0.93081808     0.05600
C504        C  0.98774018  0.48626373  0.89725902     0.21100
H505        H  0.07277759  0.57463998  0.95161352     0.10800
C506        C  0.95614245  0.48285491  0.90472282    -0.15100
C507        C  0.93034899  0.47414104  0.88463411     0.03800
C508        C  0.93569010  0.46788676  0.85664777    -0.10500
C509        C  0.96689402  0.47020933  0.84933321    -0.00500
C510        C  0.99311753  0.47991264  0.86932777    -0.05600
H511        H  0.95194204  0.48797678  0.92614772     0.06800
H512        H  0.97147426  0.46601581  0.82775440     0.10200
Br513      Br  0.03242949  0.56881858  0.90181836    -0.05300
Br514      Br  0.04450776  0.45290716  0.98002156    -0.02300
Br515      Br  0.88820340  0.47083287  0.89649125     0.00600
Br516      Br  0.03659866  0.48658807  0.85729924    -0.03800
C517        C  0.04684236  0.55708542  0.60214302    -0.11200
C518        C  0.05309780  0.58186924  0.62333175     0.04300
C519        C  0.02923027  0.57318544  0.64527321    -0.11800
C520        C  0.99896487  0.54021576  0.64658249     0.19100
C521        C  0.99179239  0.51620262  0.62480811    -0.08800
C522        C  0.01556229  0.52467713  0.60294978    -0.01800
H523        H  0.03505217  0.59170805  0.66209281     0.05600
C524        C  0.97749380  0.52962660  0.67238377     0.21100
H525        H  0.00989923  0.50534421  0.58686899     0.10800
C526        C  0.95034577  0.53596185  0.67519681    -0.15100
C527        C  0.92867286  0.52421731  0.69892708     0.03800
C528        C  0.93417895  0.50580547  0.72041139    -0.10500
C529        C  0.96200635  0.50036335  0.71759198    -0.00500
C530        C  0.98346763  0.51206521  0.69399478    -0.05600
H531        H  0.94551080  0.54936831  0.65856774     0.06800
H532        H  0.96692349  0.48642818  0.73370774     0.10200
Br533      Br  0.95063916  0.47078293  0.62491881    -0.05300
Br534      Br  0.09482856  0.62676844  0.62523618    -0.02300
Br535      Br  0.89081373  0.53205556  0.69960231     0.00600
Br536      Br  0.02033136  0.50279093  0.69180306    -0.03800
C537        C  0.34265727  0.80328516  0.92027707    -0.11200
C538        C  0.31083139  0.78012227  0.90696666     0.04300
C539        C  0.28311871  0.75452812  0.92279839    -0.11800
C540        C  0.28649159  0.75140434  0.95175282     0.19100
C541        C  0.31777969  0.77495611  0.96516845    -0.08800
C542        C  0.34539216  0.80070206  0.94950451    -0.01800
H543        H  0.25926449  0.73602286  0.91228852     0.05600
C544        C  0.25871181  0.72104186  0.96696788     0.21100
H545        H  0.36955514  0.81807239  0.96013929     0.10800
C546        C  0.25774258  0.68943427  0.96559095    -0.15100
C547        C  0.23254725  0.65998626  0.98003257     0.03800
C548        C  0.20722594  0.66180914  0.99633298    -0.10500
C549        C  0.20843827  0.69379930  0.99754162    -0.00500
C550        C  0.23386198  0.72319621  0.98305229    -0.05600
H551        H  0.27701307  0.68777978  0.95331812     0.06800
H552        H  0.18946014  0.69603320  0.00970593     0.10200
Br553      Br  0.32474209  0.77126645  0.50446841    -0.05300
Br554      Br  0.30449018  0.77931309  0.86703726    -0.02300
Br555      Br  0.23549446  0.61893955  0.47642617     0.00600
Br556      Br  0.23369424  0.76572652  0.98559200    -0.03800
C557        C  0.53624211  0.48212177  0.53518397    -0.11200
C558        C  0.55651000  0.51720160  0.54426623     0.04300
C559        C  0.54473516  0.52919126  0.56629907    -0.11800
C560        C  0.51358885  0.50666680  0.58023410     0.19100
C561        C  0.49450013  0.47134091  0.57235948    -0.08800
C562        C  0.50565631  0.45952989  0.54998724    -0.01800
H563        H  0.55976283  0.55637133  0.57238052     0.05600
C564        C  0.50031344  0.52042839  0.60198773     0.21100
H565        H  0.49002765  0.43231760  0.54412558     0.10800
C566        C  0.46858938  0.51820047  0.59732003    -0.15100
C567        C  0.45344178  0.52790007  0.61813286     0.03800
C568        C  0.47051866  0.54102121  0.64398569    -0.10500
C569        C  0.50315905  0.54509947  0.64815602    -0.00500
C570        C  0.51793323  0.53452110  0.62751485    -0.05600
H571        H  0.45511447  0.50800391  0.57757931     0.06800
H572        H  0.51639794  0.55490817  0.66803255     0.10200
Br573      Br  0.45333309  0.43784288  0.59193797    -0.05300
Br574      Br  0.60014345  0.55041434  0.02776249    -0.02300
Br575      Br  0.40958206  0.52312468  0.60997496     0.00600
Br576      Br  0.56069080  0.53715468  0.63602305    -0.03800
C577        C  0.43305974  0.50352411  0.78208949    -0.11200
C578        C  0.41197336  0.49175833  0.80637882     0.04300
C579        C  0.42177938  0.47943864  0.82957525    -0.11800
C580        C  0.45246307  0.47879882  0.82913735     0.19100
C581        C  0.47317459  0.49002509  0.80488580    -0.08800
C582        C  0.46341493  0.50211818  0.78172489    -0.01800
H583        H  0.40598076  0.47135063  0.84836081     0.05600
C584        C  0.46416779  0.46880122  0.85460367     0.21100
H585        H  0.48014699  0.51117751  0.76347883     0.10800
C586        C  0.45719007  0.43465520  0.85751548    -0.15100
C587        C  0.47194503  0.42570129  0.87943864     0.03800
C588        C  0.49451958  0.45145230  0.89889267    -0.10500
C589        C  0.50017510  0.48529703  0.89636082    -0.00500
C590        C  0.48523833  0.49400481  0.87460207    -0.05600
H591        H  0.44108898  0.41514113  0.84208309     0.06800
H592        H  0.51698883  0.50549317  0.91106133     0.10200
Br593      Br  0.51602321  0.49093172  0.80306092    -0.05300
Br594      Br  0.37138462  0.49477983  0.81032172    -0.02300
Br595      Br  0.46174887  0.37853276  0.88015593     0.00600
Br596      Br  0.49569510  0.54118000  0.87215633    -0.03800
C597        C  0.44997545  0.79220800  0.83217250    -0.11200
C598        C  0.48125460  0.79216095  0.83091701     0.04300
C599        C  0.48239654  0.76573849  0.81617440    -0.11800
C600        C  0.45294605  0.73928798  0.80260137     0.19100
C601        C  0.42180569  0.73898336  0.80399268    -0.08800
C602        C  0.42054176  0.76529541  0.81852172    -0.01800
H603        H  0.50639731  0.76588396  0.81516856     0.05600
C604        C  0.45452707  0.71153610  0.78748007     0.21100
H605        H  0.39619257  0.76446321  0.81925687     0.10800
C606        C  0.44785554  0.68174083  0.80226931    -0.15100
C607        C  0.44414122  0.65275866  0.78806485     0.03800
C608        C  0.44735481  0.65352916  0.75852731    -0.10500
C609        C  0.45614161  0.68422907  0.74395361    -0.00500
C610        C  0.45938455  0.71304532  0.75821609    -0.05600
H611        H  0.44433362  0.68060841  0.82483264     0.06800
H612        H  0.45864368  0.68516574  0.72129771     0.10200
Br613      Br  0.38026543  0.70277419  0.78655034    -0.05300
Br614      Br  0.52365684  0.82755037  0.84779908    -0.02300
Br615      Br  0.43490484  0.61301435  0.81017194     0.00600
Br616      Br  0.46827840  0.75311925  0.73688867    -0.03800
C617        C  0.19253121  0.55106972  0.59335546    -0.11200
C618        C  0.21069546  0.57358518  0.61625503     0.04300
C619        C  0.23598246  0.57044098  0.63061343    -0.11800
C620        C  0.24342953  0.54485230  0.62326688     0.19100
C621        C  0.22428510  0.52122507  0.60165634    -0.08800
C622        C  0.19932159  0.52456859  0.58678964    -0.01800
H623        H  0.25024887  0.58836942  0.64755339     0.05600
C624        C  0.27215990  0.54425026  0.63782173     0.21100
H625        H  0.18560852  0.50666706  0.56971847     0.10800
C626        C  0.26535874  0.52329817  0.66165936    -0.15100
C627        C  0.29235635  0.52392190  0.67681301     0.03800
C628        C  0.32707802  0.54580054  0.66802594    -0.10500
C629        C  0.33354699  0.56649229  0.64392037    -0.00500
C630        C  0.30660038  0.56594882  0.62899313    -0.05600
H631        H  0.23895275  0.50693005  0.66885198     0.06800
H632        H  0.35982328  0.58349827  0.63666768     0.10200
Br633      Br  0.23192554  0.48440107  0.59160704    -0.05300
Br634      Br  0.20279349  0.60928336  0.62972445    -0.02300
Br635      Br  0.27998556  0.49620927  0.71029740     0.00600
Br636      Br  0.31810865  0.59583638  0.59689792    -0.03800
loop_ 
_geom_bond_atom_site_label_1 
_geom_bond_atom_site_label_2 
_geom_bond_distance 
_geom_bond_site_symmetry_2 
_ccdc_geom_bond_type 
O1            C4   1.268       .  A
O1           Cd6   2.485       .  S
C2           O11   1.263       .  A
C2            O7   1.269       .  A
C2          C290   1.473       .  S
O3            C9   1.270       .  A
O3           Cd6   2.507       .  S
C4           O12   1.265       .  A
C4          C250   1.474       .  S
C5           O10   1.270       .  A
C5            O8   1.264       .  A
C5          C259   1.488       .  S
Cd6          O13   2.451       .  S
Cd6          O12   2.430       .  S
Cd6          O11   2.417       .  S
Cd6           O7   2.484       .  S
Cd6          O10   2.510       .  S
Cd6           O8   2.441       .  S
C9           O13   1.266       .  A
C9          C310   1.493       .  S
O14          C17   1.269       .  A
O14         Cd19   2.498       .  S
C15          O24   1.263       .  A
C15          O20   1.271       .  A
C15         C548   1.492   1_554  S
O16          C22   1.272       .  A
O16         Cd19   2.522       .  S
C17          O25   1.267       .  A
C17         C199   1.491       .  S
C18         O341   1.271       .  A
C18         O339   1.265       .  A
C18         C179   1.489       .  S
Cd19         O26   2.427       .  S
Cd19         O25   2.457       .  S
Cd19         O24   2.438       .  S
Cd19         O20   2.493       .  S
Cd19         O23   2.509       .  S
Cd19         O21   2.423   1_554  S
O21         C336   1.265       .  A
C22          O26   1.262       .  A
C22         C299   1.496       .  S
O23         C336   1.271   1_554  A
O27          C30   1.269       .  A
O27         Cd32   2.495       .  S
C28          O37   1.265       .  A
C28          O33   1.268       .  A
C28         C219   1.483       .  S
O29          C35   1.268       .  A
O29         Cd32   2.488       .  S
C30          O38   1.265       .  A
C30         C139   1.483       .  S
C31          O36   1.268       .  A
C31          O34   1.266       .  A
C31         C159   1.487       .  S
Cd32         O39   2.436       .  S
Cd32         O38   2.424       .  S
Cd32         O37   2.440       .  S
Cd32         O33   2.488       .  S
Cd32         O36   2.486       .  S
Cd32         O34   2.418       .  S
C35          O39   1.265       .  A
C35         C279   1.486       .  S
O40          C43   1.267       .  A
O40         Cd45   2.479       .  S
C41          O50   1.265       .  A
C41          O46   1.269       .  A
C41         C119   1.480       .  S
O42          C48   1.270       .  A
O42         Cd45   2.505       .  S
C43          O51   1.265       .  A
C43         C190   1.473       .  S
C44          O49   1.270       .  A
C44          O47   1.264       .  A
C44         C210   1.490       .  S
Cd45         O52   2.444       .  S
Cd45         O51   2.454       .  S
Cd45         O50   2.429       .  S
Cd45         O46   2.485       .  S
Cd45         O49   2.512       .  S
Cd45         O47   2.433       .  S
C48          O52   1.266       .  A
C48         C110   1.496       .  S
O53          C56   1.270       .  A
O53         Cd58   2.501       .  S
C54          O63   1.263       .  A
C54          O59   1.272       .  A
C54         C408   1.486       .  S
O55          C61   1.271       .  A
O55         Cd58   2.501       .  S
C56          O64   1.267       .  A
C56         C270   1.493       .  S
C57         O380   1.270   1_554  A
C57         O378   1.266       .  A
C57         C239   1.491       .  S
Cd58         O65   2.428       .  S
Cd58         O64   2.445       .  S
Cd58         O63   2.431       .  S
Cd58         O59   2.497       .  S
Cd58         O62   2.499       .  S
Cd58         O60   2.427       .  S
O60         C375   1.266       .  A
C61          O65   1.264       .  A
C61          C99   1.485       .  S
O62         C375   1.270       .  A
O66          C69   1.268       .  A
O66         Cd71   2.471       .  S
C67          O76   1.264       .  A
C67          O72   1.271       .  A
C67         C130   1.475       .  S
O68          C74   1.270       .  A
O68         Cd71   2.495       .  S
C69          O77   1.265       .  A
C69         C170   1.476       .  S
C70          O75   1.271       .  A
C70          O73   1.265       .  A
C70         C150   1.479       .  S
Cd71         O78   2.424       .  S
Cd71         O77   2.444       .  S
Cd71         O76   2.407       .  S
Cd71         O72   2.480       .  S
Cd71         O75   2.491       .  S
Cd71         O73   2.427       .  S
C74          O78   1.264       .  A
C74          C79   1.491       .  S
C79          C80   1.417       .  A
C79          C84   1.410       .  A
C80          C81   1.404       .  A
C80         Br96   1.920       .  S
C81          C82   1.402       .  A
C81          H85   1.084       .  S
C82          C86   1.478       .  S
C82          C83   1.404       .  A
C83          C84   1.397       .  A
C83         Br95   1.919       .  S
C84          H87   1.083       .  S
C86          C88   1.399       .  A
C86          C92   1.406       .  A
C88          C89   1.399       .  A
C88          H93   1.084       .  S
C89          C90   1.418       .  A
C89         Br97   1.922       .  S
C90         C372   1.486   1_554  S
C90         C409   1.407   1_554  A
C91         C408   1.407       .  A
C91         C410   1.402       .  A
C91          H94   1.084       .  S
C92         C409   1.402   1_554  A
C92        Br416   1.917   1_554  S
Br98        C410   1.917       .  S
C99         C100   1.416       .  A
C99         C104   1.405       .  A
C100        C101   1.401       .  A
C100       Br116   1.922       .  S
C101        C102   1.401       .  A
C101        H105   1.084       .  S
C102        C106   1.483       .  S
C102        C103   1.408       .  A
C103        C104   1.402       .  A
C103       Br115   1.918       .  S
C104        H107   1.083       .  S
C106        C108   1.402       .  A
C106        C112   1.405       .  A
C108        C109   1.405       .  A
C108        H113   1.084       .  S
C109        C110   1.419       .  A
C109       Br117   1.919       .  S
C110        C111   1.410       .  A
C111        C112   1.399       .  A
C111        H114   1.083       .  S
C112       Br118   1.920       .  S
C119        C120   1.412       .  A
C119        C124   1.405       .  A
C120        C121   1.402       .  A
C120       Br136   1.919       .  S
C121        C122   1.405       .  A
C121        H125   1.083       .  S
C122        C126   1.483       .  S
C122        C123   1.409       .  A
C123        C124   1.396       .  A
C123       Br135   1.921       .  S
C124        H127   1.084       .  S
C126        C128   1.403       .  A
C126        C132   1.410       .  A
C128        C129   1.395       .  A
C128        H133   1.084       .  S
C129        C130   1.412       .  A
C129       Br137   1.923       .  S
C130        C131   1.404       .  A
C131        C132   1.401       .  A
C131        H134   1.084       .  S
C132       Br138   1.918       .  S
C139        C140   1.414       .  A
C139        C144   1.405       .  A
C140        C141   1.405       .  A
C140       Br156   1.920       .  S
C141        C142   1.404       .  A
C141        H145   1.083   1_565  S
C142        C146   1.482   1_565  S
C142        C143   1.406       .  A
C143        C144   1.395       .  A
C143       Br155   1.919       .  S
C144        H147   1.083       .  S
C146        C148   1.402       .  A
C146        C152   1.408       .  A
C148        C149   1.399       .  A
C148        H153   1.084       .  S
C149        C150   1.413       .  A
C149       Br157   1.922       .  S
C150        C151   1.404       .  A
C151        C152   1.402       .  A
C151        H154   1.083       .  S
C152       Br158   1.917   1_545  S
C159        C160   1.418       .  A
C159        C164   1.408       .  A
C160        C161   1.404       .  A
C160       Br176   1.920       .  S
C161        C162   1.401       .  A
C161        H165   1.083       .  S
C162        C484   1.473   1_565  S
C162        C163   1.403       .  A
C163        C164   1.392       .  A
C163       Br175   1.921   1_565  S
C164        H167   1.083       .  S
C166        C480   1.473   1_544  S
C166        C168   1.400       .  A
C166        C172   1.406       .  A
C168        C169   1.400       .  A
C168        H173   1.083   1_554  S
C169        C170   1.412       .  A
C169       Br177   1.919       .  S
C170        C171   1.405       .  A
C171        C172   1.397       .  A
C171        H174   1.083       .  S
C172       Br496   1.920   1_545  S
Br178       C490   1.920   1_565  S
C179        C180   1.416       .  A
C179        C184   1.409       .  A
C180        C181   1.405       .  A
C180       Br196   1.919       .  S
C181        C182   1.403       .  A
C181        H185   1.083       .  S
C182        C186   1.478   1_455  S
C182        C183   1.403       .  A
C183        C184   1.396       .  A
C183       Br195   1.920       .  S
C184        H187   1.083       .  S
C186        C188   1.402       .  A
C186        C192   1.407       .  A
C188        C189   1.398       .  A
C188        H193   1.084       .  S
C189        C190   1.408       .  A
C189       Br197   1.919       .  S
C190        C191   1.404       .  A
C191        C192   1.402       .  A
C191        H194   1.084       .  S
C192       Br198   1.917   1_655  S
C199        C200   1.417       .  A
C199        C204   1.408       .  A
C200        C201   1.405       .  A
C200       Br216   1.919       .  S
C201        C202   1.402   1_455  A
C201        H205   1.083       .  S
C202        C206   1.483       .  S
C202        C203   1.406       .  A
C203        C204   1.400   1_655  A
C203       Br215   1.919       .  S
C204        H207   1.083       .  S
C206        C208   1.403       .  A
C206        C212   1.405       .  A
C208        C209   1.407       .  A
C208        H213   1.083       .  S
C209        C210   1.416       .  A
C209       Br217   1.919       .  S
C210        C211   1.408       .  A
C211        C212   1.397       .  A
C211        H214   1.084       .  S
C212       Br218   1.920   1_655  S
C219        C220   1.414       .  A
C219        C224   1.407       .  A
C220        C221   1.402       .  A
C220       Br236   1.920       .  S
C221        C222   1.402       .  A
C221        H225   1.083       .  S
C222        C226   1.478       .  S
C222        C223   1.405       .  A
C223        C224   1.398       .  A
C223       Br553   1.919       .  S
C224        H227   1.083       .  S
C226        C228   1.398       .  A
C226        C232   1.405       .  A
C228        C229   1.399       .  A
C228        H233   1.084       .  S
C229        C230   1.421       .  A
C229       Br555   1.923       .  S
C230        C333   1.492       .  S
C230        C231   1.410       .  A
C231        C232   1.402       .  A
C231        H234   1.083       .  S
C232       Br238   1.917       .  S
Br235       C541   1.919   1_554  S
Br237       C547   1.923       .  S
C239        C240   1.417       .  A
C239        C244   1.408       .  A
C240        C241   1.404       .  A
C240       Br574   1.919       .  S
C241        C242   1.403       .  A
C241        H245   1.083       .  S
C242        C246   1.483       .  S
C242        C243   1.407       .  A
C243        C244   1.396       .  A
C243       Br255   1.922       .  S
C244        H247   1.083       .  S
C246        C248   1.403       .  A
C246        C252   1.410       .  A
C248        C249   1.397       .  A
C248        H253   1.084       .  S
C249        C250   1.409       .  A
C249       Br257   1.921       .  S
C250        C251   1.404       .  A
C251        C252   1.403       .  A
C251        H254   1.083       .  S
C252       Br258   1.919       .  S
Br256       C558   1.919       .  S
C259        C260   1.416       .  A
C259        C264   1.407       .  A
C260        C261   1.406       .  A
C260       Br276   1.919       .  S
C261        C262   1.403       .  A
C261        H265   1.083       .  S
C262        C266   1.483       .  S
C262        C263   1.406       .  A
C263        C264   1.398       .  A
C263       Br275   1.920       .  S
C264        H267   1.083       .  S
C266        C268   1.402       .  A
C266        C272   1.405       .  A
C268        C269   1.405       .  A
C268        H273   1.084       .  S
C269        C270   1.418       .  A
C269       Br277   1.919       .  S
C270        C271   1.409       .  A
C271        C272   1.399       .  A
C271        H274   1.083       .  S
C272       Br278   1.919       .  S
C279        C280   1.417       .  A
C279        C284   1.408       .  A
C280        C281   1.402       .  A
C280       Br296   1.919       .  S
C281        C282   1.400       .  A
C281        H285   1.083       .  S
C282        C286   1.472       .  S
C282        C283   1.403       .  A
C283        C284   1.395       .  A
C283       Br295   1.921       .  S
C284        H287   1.083       .  S
C286        C288   1.399       .  A
C286        C292   1.407       .  A
C288        C289   1.397       .  A
C288        H293   1.083       .  S
C289        C290   1.412       .  A
C289       Br297   1.922       .  S
C290        C291   1.404       .  A
C291        C292   1.399       .  A
C291        H294   1.083       .  S
C292       Br298   1.918       .  S
C299        C300   1.422       .  A
C299        C304   1.409       .  A
C300        C301   1.401       .  A
C300       Br316   1.924       .  S
C301        C302   1.399       .  A
C301        H305   1.084       .  S
C302        C306   1.485       .  S
C302        C303   1.407       .  A
C303        C304   1.405       .  A
C303       Br315   1.917       .  S
C304        H307   1.083       .  S
C306        C308   1.403       .  A
C306        C312   1.406       .  A
C308        C309   1.406       .  A
C308        H313   1.083       .  S
C309        C310   1.416       .  A
C309       Br317   1.919       .  S
C310        C311   1.409       .  A
C311        C312   1.400       .  A
C311        H314   1.083       .  S
C312       Br318   1.919       .  S
O319        C322   1.268       .  A
O319       Cd324   2.485       .  S
C320        O329   1.263       .  A
C320        O325   1.269       .  A
C320        C608   1.473       .  S
O321        C327   1.270       .  A
O321       Cd324   2.507       .  S
C322        O330   1.265       .  A
C322        C568   1.474       .  S
C323        O328   1.270       .  A
C323        O326   1.264       .  A
C323        C577   1.488       .  S
Cd324       O331   2.451       .  S
Cd324       O330   2.430       .  S
Cd324       O329   2.417       .  S
Cd324       O325   2.484       .  S
Cd324       O328   2.510       .  S
Cd324       O326   2.441       .  S
C327        O331   1.266       .  A
C327        C628   1.493       .  S
O332        C335   1.269       .  A
O332       Cd337   2.498       .  S
C333        O342   1.263       .  A
C333        O338   1.271       .  A
O334        C340   1.272       .  A
O334       Cd337   2.522       .  S
C335        O343   1.267       .  A
C335        C517   1.491       .  S
C336        C497   1.489       .  S
Cd337       O344   2.427       .  S
Cd337       O343   2.457       .  S
Cd337       O342   2.438       .  S
Cd337       O338   2.493       .  S
Cd337       O341   2.509       .  S
Cd337       O339   2.423       .  S
C340        O344   1.262       .  A
C340        C617   1.496       .  S
O345        C348   1.269       .  A
O345       Cd350   2.495       .  S
C346        O355   1.265       .  A
C346        O351   1.268       .  A
C346        C537   1.483       .  S
O347        C353   1.268       .  A
O347       Cd350   2.488       .  S
C348        O356   1.265       .  A
C348        C457   1.483       .  S
C349        O354   1.268       .  A
C349        O352   1.266       .  A
C349        C477   1.487       .  S
Cd350       O357   2.436       .  S
Cd350       O356   2.424       .  S
Cd350       O355   2.440       .  S
Cd350       O351   2.488       .  S
Cd350       O354   2.486       .  S
Cd350       O352   2.418       .  S
C353        O357   1.265       .  A
C353        C597   1.486       .  S
O358        C361   1.267       .  A
O358       Cd363   2.479       .  S
C359        O368   1.265       .  A
C359        O364   1.269       .  A
C359        C437   1.480       .  S
O360        C366   1.270       .  A
O360       Cd363   2.505       .  S
C361        O369   1.265       .  A
C361        C508   1.473       .  S
C362        O367   1.270       .  A
C362        O365   1.264       .  A
C362        C528   1.490       .  S
Cd363       O370   2.444       .  S
Cd363       O369   2.454       .  S
Cd363       O368   2.429       .  S
Cd363       O364   2.485       .  S
Cd363       O367   2.512       .  S
Cd363       O365   2.433       .  S
C366        O370   1.266       .  A
C366        C428   1.496       .  S
O371        C374   1.270       .  A
O371       Cd376   2.501       .  S
C372        O381   1.263       .  A
C372        O377   1.272       .  A
O373        C379   1.271       .  A
O373       Cd376   2.501       .  S
C374        O382   1.267       .  A
C374        C588   1.493       .  S
C375        C557   1.491       .  S
Cd376       O383   2.428       .  S
Cd376       O382   2.445       .  S
Cd376       O381   2.431       .  S
Cd376       O377   2.497       .  S
Cd376       O380   2.499       .  S
Cd376       O378   2.427   1_556  S
C379        O383   1.264       .  A
C379        C417   1.485       .  S
O384        C387   1.268       .  A
O384       Cd389   2.471       .  S
C385        O394   1.264       .  A
C385        O390   1.271       .  A
C385        C448   1.475       .  S
O386        C392   1.270       .  A
O386       Cd389   2.495       .  S
C387        O395   1.265       .  A
C387        C488   1.476       .  S
C388        O393   1.271       .  A
C388        O391   1.265       .  A
C388        C468   1.479       .  S
Cd389       O396   2.424       .  S
Cd389       O395   2.444       .  S
Cd389       O394   2.407       .  S
Cd389       O390   2.480       .  S
Cd389       O393   2.491       .  S
Cd389       O391   2.427       .  S
C392        O396   1.264       .  A
C392        C397   1.491       .  S
C397        C398   1.417       .  A
C397        C402   1.410       .  A
C398        C399   1.404       .  A
C398       Br414   1.920       .  S
C399        C400   1.402       .  A
C399        H403   1.084       .  S
C400        C404   1.478       .  S
C400        C401   1.404       .  A
C401        C402   1.397       .  A
C401       Br413   1.919       .  S
C402        H405   1.083       .  S
C404        C406   1.399       .  A
C404        C410   1.406       .  A
C406        C407   1.399       .  A
C406        H411   1.084       .  S
C407        C408   1.418       .  A
C407       Br415   1.922       .  S
C409        H412   1.084       .  S
C417        C418   1.416       .  A
C417        C422   1.405       .  A
C418        C419   1.401       .  A
C418       Br434   1.922       .  S
C419        C420   1.401       .  A
C419        H423   1.084       .  S
C420        C424   1.483       .  S
C420        C421   1.408       .  A
C421        C422   1.402       .  A
C421       Br433   1.918       .  S
C422        H425   1.083       .  S
C424        C426   1.402       .  A
C424        C430   1.405       .  A
C426        C427   1.405       .  A
C426        H431   1.084       .  S
C427        C428   1.419       .  A
C427       Br435   1.919       .  S
C428        C429   1.410       .  A
C429        C430   1.399       .  A
C429        H432   1.083       .  S
C430       Br436   1.920       .  S
C437        C438   1.412       .  A
C437        C442   1.405       .  A
C438        C439   1.402       .  A
C438       Br454   1.919       .  S
C439        C440   1.405       .  A
C439        H443   1.083       .  S
C440        C444   1.483       .  S
C440        C441   1.409       .  A
C441        C442   1.396       .  A
C441       Br453   1.921       .  S
C442        H445   1.084       .  S
C444        C446   1.403       .  A
C444        C450   1.410       .  A
C446        C447   1.395       .  A
C446        H451   1.084       .  S
C447        C448   1.412       .  A
C447       Br455   1.923       .  S
C448        C449   1.404       .  A
C449        C450   1.401       .  A
C449        H452   1.084       .  S
C450       Br456   1.918       .  S
C457        C458   1.414       .  A
C457        C462   1.405       .  A
C458        C459   1.405       .  A
C458       Br474   1.920       .  S
C459        C460   1.404       .  A
C459        H463   1.083   1_565  S
C460        C464   1.482   1_565  S
C460        C461   1.406       .  A
C461        C462   1.395       .  A
C461       Br473   1.919       .  S
C462        H465   1.083       .  S
C464        C466   1.402       .  A
C464        C470   1.408       .  A
C466        C467   1.399       .  A
C466        H471   1.084       .  S
C467        C468   1.413       .  A
C467       Br475   1.922       .  S
C468        C469   1.404       .  A
C469        C470   1.402       .  A
C469        H472   1.083       .  S
C470       Br476   1.917   1_545  S
C477        C478   1.418       .  A
C477        C482   1.408       .  A
C478        C479   1.404       .  A
C478       Br494   1.920       .  S
C479        C480   1.401       .  A
C479        H483   1.083       .  S
C480        C481   1.403       .  A
C481        C482   1.392       .  A
C481       Br493   1.921   1_565  S
C482        H485   1.083       .  S
C484        C486   1.400       .  A
C484        C490   1.406       .  A
C486        C487   1.400       .  A
C486        H491   1.083       .  S
C487        C488   1.412       .  A
C487       Br495   1.919       .  S
C488        C489   1.405       .  A
C489        C490   1.397       .  A
C489        H492   1.083       .  S
C497        C498   1.416       .  A
C497        C502   1.409       .  A
C498        C499   1.405       .  A
C498       Br514   1.919       .  S
C499        C500   1.403       .  A
C499        H503   1.083       .  S
C500        C504   1.478   1_455  S
C500        C501   1.403       .  A
C501        C502   1.396       .  A
C501       Br513   1.920       .  S
C502        H505   1.083       .  S
C504        C506   1.402       .  A
C504        C510   1.407       .  A
C506        C507   1.398       .  A
C506        H511   1.084       .  S
C507        C508   1.408       .  A
C507       Br515   1.919       .  S
C508        C509   1.404       .  A
C509        C510   1.402       .  A
C509        H512   1.084       .  S
C510       Br516   1.917   1_655  S
C517        C518   1.417       .  A
C517        C522   1.408       .  A
C518        C519   1.405       .  A
C518       Br534   1.919       .  S
C519        C520   1.402   1_455  A
C519        H523   1.083       .  S
C520        C524   1.483       .  S
C520        C521   1.406       .  A
C521        C522   1.400   1_655  A
C521       Br533   1.919       .  S
C522        H525   1.083       .  S
C524        C526   1.403       .  A
C524        C530   1.405       .  A
C526        C527   1.407       .  A
C526        H531   1.083       .  S
C527        C528   1.416       .  A
C527       Br535   1.919       .  S
C528        C529   1.408       .  A
C529        C530   1.397       .  A
C529        H532   1.084       .  S
C530       Br536   1.920   1_655  S
C537        C538   1.414       .  A
C537        C542   1.407       .  A
C538        C539   1.402       .  A
C538       Br554   1.920       .  S
C539        C540   1.402       .  A
C539        H543   1.083       .  S
C540        C544   1.478       .  S
C540        C541   1.405       .  A
C541        C542   1.398       .  A
C542        H545   1.083       .  S
C544        C546   1.398       .  A
C544        C550   1.405       .  A
C546        C547   1.399       .  A
C546        H551   1.084       .  S
C547        C548   1.421       .  A
C548        C549   1.410       .  A
C549        C550   1.402       .  A
C549        H552   1.083   1_556  S
C550       Br556   1.917       .  S
C557        C558   1.417       .  A
C557        C562   1.408       .  A
C558        C559   1.404       .  A
C559        C560   1.403       .  A
C559        H563   1.083       .  S
C560        C564   1.483       .  S
C560        C561   1.407       .  A
C561        C562   1.396       .  A
C561       Br573   1.922       .  S
C562        H565   1.083       .  S
C564        C566   1.403       .  A
C564        C570   1.410       .  A
C566        C567   1.397       .  A
C566        H571   1.084       .  S
C567        C568   1.409       .  A
C567       Br575   1.921       .  S
C568        C569   1.404       .  A
C569        C570   1.403       .  A
C569        H572   1.083       .  S
C570       Br576   1.919       .  S
C577        C578   1.416       .  A
C577        C582   1.407       .  A
C578        C579   1.406       .  A
C578       Br594   1.919       .  S
C579        C580   1.403       .  A
C579        H583   1.083       .  S
C580        C584   1.483       .  S
C580        C581   1.406       .  A
C581        C582   1.398       .  A
C581       Br593   1.920       .  S
C582        H585   1.083       .  S
C584        C586   1.402       .  A
C584        C590   1.405       .  A
C586        C587   1.405       .  A
C586        H591   1.084       .  S
C587        C588   1.418       .  A
C587       Br595   1.919       .  S
C588        C589   1.409       .  A
C589        C590   1.399       .  A
C589        H592   1.083       .  S
C590       Br596   1.919       .  S
C597        C598   1.417       .  A
C597        C602   1.408       .  A
C598        C599   1.402       .  A
C598       Br614   1.919       .  S
C599        C600   1.400       .  A
C599        H603   1.083       .  S
C600        C604   1.472       .  S
C600        C601   1.403       .  A
C601        C602   1.395       .  A
C601       Br613   1.921       .  S
C602        H605   1.083       .  S
C604        C606   1.399       .  A
C604        C610   1.407       .  A
C606        C607   1.397       .  A
C606        H611   1.083       .  S
C607        C608   1.412       .  A
C607       Br615   1.922       .  S
C608        C609   1.404       .  A
C609        C610   1.399       .  A
C609        H612   1.083       .  S
C610       Br616   1.918       .  S
C617        C618   1.422       .  A
C617        C622   1.409       .  A
C618        C619   1.401       .  A
C618       Br634   1.924       .  S
C619        C620   1.399       .  A
C619        H623   1.084       .  S
C620        C624   1.485       .  S
C620        C621   1.407       .  A
C621        C622   1.405       .  A
C621       Br633   1.917       .  S
C622        H625   1.083       .  S
C624        C626   1.403       .  A
C624        C630   1.406       .  A
C626        C627   1.406       .  A
C626        H631   1.083       .  S
C627        C628   1.416       .  A
C627       Br635   1.919       .  S
C628        C629   1.409       .  A
C629        C630   1.400       .  A
C629        H632   1.083       .  S
C630       Br636   1.919       .  S
