geometry optimzed in LAMMPS
_audit_creation_date              2020-12-01 
_audit_creation_method            'lammps2cif' 
_symmetry_space_group_name_H-M    'P1' 
_symmetry_Int_Tables_number       1 
_symmetry_cell_setting            triclinic 
loop_ 
_symmetry_equiv_pos_as_xyz 
  x,y,z 
_cell_length_a                    33.94525278 
_cell_length_b                    33.942381252786326 
_cell_length_c                    33.951639468605315 
_cell_angle_alpha                 90.21177088920597 
_cell_angle_beta                  89.81619423241712 
_cell_angle_gamma                 89.81780819974095 
loop_ 
_atom_site_label 
_atom_site_type_symbol 
_atom_site_fract_x 
_atom_site_fract_y 
_atom_site_fract_z 
_atom_site_charge 
C1          C  0.33029130  0.23429203  0.53097961     0.81200
N2          N  0.34754426  0.19847150  0.53208725    -0.77100
C3          C  0.35678358  0.17962449  0.49824241     0.83700
N4          N  0.34818280  0.19635131  0.46326296    -0.77000
C5          C  0.33130726  0.23248038  0.46247508     0.83800
N6          N  0.32141757  0.25097565  0.49624430    -0.78700
C7          C  0.17636139  0.37945820  0.46167667     0.81200
N8          N  0.19330660  0.36793023  0.49658165    -0.77100
C9          C  0.17648971  0.37802040  0.53216357     0.83700
N10         N  0.14242972  0.39961481  0.53232087    -0.77000
C11         C  0.12491887  0.41116186  0.49802246     0.83800
N12         N  0.14210362  0.40083571  0.46292566    -0.78700
C13         C  0.16809217  0.51562628  0.34922281     0.81200
N14         N  0.18472533  0.55049393  0.34071754    -0.77100
C15         C  0.16619338  0.58415207  0.35092685     0.83700
N16         N  0.13008027  0.58312470  0.36780890    -0.77000
C17         C  0.11338527  0.54803828  0.37609124     0.83800
N18         N  0.13226800  0.51429218  0.36649151    -0.78700
C19         C  0.31045812  0.51453273  0.19434138     0.81200
N20         N  0.30027123  0.55012746  0.21109360    -0.77100
C21         C  0.31173376  0.58504879  0.19411882     0.83700
N22         N  0.33316034  0.58378750  0.15987108    -0.77000
C23         C  0.34358460  0.54864711  0.14276417     0.83800
N24         N  0.33208776  0.51436673  0.16032806    -0.78700
C25         C  0.49582032  0.22434018  0.32910023     0.81200
N26         N  0.46222690  0.24491472  0.32252279    -0.77100
C27         C  0.42705636  0.23044315  0.33507453     0.83700
N28         N  0.42560031  0.19462408  0.35359768    -0.77000
C29         C  0.45974608  0.17410571  0.35981893     0.83800
N30         N  0.49430922  0.18932838  0.34744219    -0.78700
C31         C  0.46165625  0.38161125  0.18346442     0.81200
N32         N  0.46349625  0.40445503  0.15131311    -0.77100
C33         C  0.49819424  0.41864561  0.13819991     0.83700
N34         N  0.53199268  0.40971263  0.15772324    -0.77000
C35         C  0.53009642  0.38689863  0.19073355     0.83800
N36         N  0.49497117  0.37233971  0.20321269    -0.78700
C37         C  0.14775397  0.35263905  0.96142964     0.81200
N38         N  0.12626870  0.38687055  0.96271600    -0.77100
C39         C  0.11580146  0.40395704  0.99786273     0.83700
N40         N  0.12732114  0.38639427  0.03212398    -0.77000
C41         C  0.14900495  0.35240752  0.03194779     0.83800
N42         N  0.15922574  0.33567130  0.99635216    -0.78700
C43         C  0.29382560  0.19548027  0.96249105     0.81200
N44         N  0.27540663  0.20568459  0.99618769    -0.77100
C45         C  0.29231468  0.19751795  0.03098026     0.83700
N46         N  0.32829508  0.18054529  0.03220511    -0.77000
C47         C  0.34703648  0.17089319  0.99839109     0.83800
N48         N  0.33006887  0.17887728  0.96337949    -0.78700
O49         O  0.10692244  0.34077353  0.74600878    -0.87200
C50         C  0.26377654  0.24050024  0.62508787     1.12900
O51         O  0.19517931  0.33058589  0.74614111    -1.35000
O52         O  0.17744580  0.20024365  0.67583302    -0.88700
O53         O  0.13454379  0.37131785  0.79759690    -0.89300
O54         O  0.17781230  0.28441786  0.82975142    -0.78100
O55         O  0.14178304  0.27542478  0.70316690    -1.00200
C56         C  0.24773496  0.19961580  0.79188696     1.22900
O57         O  0.26108084  0.29757590  0.77970926    -1.35100
Mn58       Mn  0.25345351  0.32206640  0.72107801     1.82100
O59         O  0.21489260  0.21658281  0.79619021    -0.77200
O60         O  0.23028366  0.17481005  0.70619076    -0.86600
C61         C  0.33078413  0.27934282  0.70313885     1.14000
C62         C  0.19610171  0.17201843  0.69190010     1.08700
O63         O  0.27786811  0.37853938  0.73348284    -0.78200
O64         O  0.22823180  0.26410068  0.71363928    -1.31800
O65         O  0.25109786  0.38083267  0.79036613    -0.97400
C66         C  0.28416792  0.26175789  0.86862778     1.07400
Mn67       Mn  0.27190128  0.21837174  0.71268955     1.48600
O68         O  0.26673193  0.29466501  0.86870848    -0.86600
Mn69       Mn  0.19382770  0.37659574  0.78943571     1.49600
O70         O  0.15755841  0.39372899  0.69461263    -0.90400
C71         C  0.12562775  0.25545444  0.72843380     1.20600
C72         C  0.17376460  0.42205494  0.71298341     1.12700
Mn73       Mn  0.20259175  0.27284331  0.77167379     1.81000
O74         O  0.31474248  0.25505499  0.72412419    -0.95600
Mn75       Mn  0.14939667  0.33309803  0.70292805     1.49300
C76         C  0.10631193  0.35428616  0.78073267     1.09200
Mn77       Mn  0.30885628  0.25663572  0.78105014     1.49900
C78         C  0.34963880  0.33380111  0.80360899     1.12100
O79         O  0.20488014  0.34022511  0.83264684    -1.01400
O80         O  0.28071001  0.22375262  0.65344817    -0.91100
C81         C  0.18388685  0.31596224  0.84868877     1.23400
O82         O  0.27211668  0.21420097  0.76999193    -1.01800
O83         O  0.22884422  0.25344195  0.62546526    -0.89200
O84         O  0.34996485  0.30087029  0.78621361    -0.88800
O85         O  0.18784554  0.41966221  0.74728131    -0.88800
Mn86       Mn  0.18541847  0.26099822  0.66755141     1.47900
O87         O  0.31170978  0.31072001  0.69679082    -0.77300
C88         C  0.27334678  0.39543077  0.76635873     1.16500
O89         O  0.14454594  0.24939661  0.75995608    -0.76000
O90         O  0.24203393  0.34520901  0.66290936    -0.75600
Mn91       Mn  0.26185658  0.33870076  0.82738136     1.51100
O92         O  0.30452282  0.24824892  0.84057600    -0.88000
O93         O  0.18544798  0.31865806  0.65967879    -0.95500
O94         O  0.32136999  0.34725877  0.82367159    -0.90500
C95         C  0.21073094  0.33880427  0.64372135     1.14200
C96         C  0.12911492  0.01553417  0.31045674     0.81200
N97         N  0.11207403  0.01420646  0.34637764    -0.77100
C98         C  0.10263039  0.04795203  0.36533041     0.83700
N99         N  0.11082973  0.08303683  0.34860452    -0.77000
C100        C  0.12747719  0.08404784  0.31238740     0.83800
N101        N  0.13754625  0.05038940  0.29378286    -0.78700
C102        C  0.28353153  0.01453877  0.16777903     0.81200
N103        N  0.26667318  0.05010923  0.17788172    -0.77100
C104        C  0.28355017  0.08505821  0.16633477     0.83700
N105        N  0.31780219  0.08385568  0.14491625    -0.77000
C106        C  0.33501269  0.04875107  0.13457570     0.83800
N107        N  0.31755008  0.01443678  0.14614795    -0.78700
O108        O  0.27216682  0.79866428  0.12628540    -0.87200
C109        C  0.17534462  0.67816975  0.28456797     1.12900
O110        O  0.26466794  0.80024160  0.21532118    -1.35000
O111        O  0.13815612  0.72307189  0.19874347    -0.88700
O112        O  0.30262024  0.85135525  0.15200707    -0.89300
O113        O  0.21817316  0.88362749  0.20037112    -0.78100
O114        O  0.20862325  0.75599658  0.16512451    -1.00200
C115        C  0.12909083  0.84362167  0.26597536     1.22900
O116        O  0.23161295  0.83313814  0.28159711    -1.35100
Mn117      Mn  0.25703377  0.77497436  0.27313703     1.82100
O118        O  0.14829415  0.84996625  0.23469678    -0.77200
O119        O  0.10952230  0.76029749  0.24528084    -0.86600
C120        C  0.21178089  0.75522624  0.34638950     1.14000
C121        C  0.10978654  0.74288994  0.21236055     1.08700
O122        O  0.31505534  0.78650665  0.29660460    -0.78200
O123        O  0.19856203  0.76699317  0.24834612    -1.31800
O124        O  0.31814936  0.84320947  0.27040450    -0.97400
C125        C  0.19629391  0.92193760  0.30454672     1.07400
Mn126      Mn  0.15079599  0.76583376  0.28933161     1.48600
O127        O  0.23136887  0.92144951  0.29197817    -0.86600
Mn128      Mn  0.31063755  0.84326139  0.21272240     1.49600
O129        O  0.32517947  0.74829393  0.17493771    -0.90400
C130        C  0.18650208  0.78007563  0.15042510     1.20600
C131        C  0.35343420  0.76508845  0.19200994     1.12700
Mn132      Mn  0.20649345  0.82553979  0.22363515     1.81000
O133        O  0.18748712  0.77715568  0.33170757    -0.95600
Mn134      Mn  0.26591732  0.75672652  0.16950361     1.49300
C135        C  0.28638979  0.83289796  0.12373978     1.09200
Mn136      Mn  0.18777581  0.83444744  0.32712140     1.49900
C137        C  0.26344120  0.85521565  0.37369652     1.12100
O138        O  0.27475574  0.88678783  0.22696378    -1.01400
O139        O  0.15519146  0.70634578  0.29814059    -0.91100
C140        C  0.24950705  0.90277539  0.20678734     1.23400
O141        O  0.14505315  0.82276747  0.29040900    -1.01800
O142        O  0.19258522  0.67796527  0.25156134    -0.89200
O143        O  0.22915248  0.84122470  0.37080377    -0.88800
O144        O  0.35293104  0.79989470  0.20534719    -0.88800
Mn145      Mn  0.19766239  0.71917409  0.20740326     1.47900
O146        O  0.24460910  0.75073982  0.32946045    -0.77300
C147        C  0.33415033  0.81789652  0.29044788     1.16500
O148        O  0.18215719  0.81304614  0.16718094    -0.76000
O149        O  0.28161843  0.71681913  0.26186920    -0.75600
Mn150      Mn  0.27463046  0.87908269  0.28465374     1.51100
O151        O  0.17911850  0.89365133  0.32117911    -0.88000
O152        O  0.25462673  0.71373864  0.20603720    -0.95500
O153        O  0.28241129  0.87093031  0.34547351    -0.90500
C154        C  0.27554399  0.69777472  0.23041077     1.14200
C155        C  0.96345175  0.21652387  0.32123682     0.81200
N156        N  0.96511955  0.19833619  0.35631859    -0.77100
C157        C  0.99980034  0.18631446  0.37157193     0.83700
N158        N  0.03387086  0.19274507  0.35104953    -0.77000
C159        C  0.03225342  0.21112841  0.31519802     0.83800
N160        N  0.99699174  0.22332602  0.30066070    -0.78700
C161        C  0.92898585  0.35594311  0.15950270     0.81200
N162        N  0.96408275  0.34361056  0.17426372    -0.77100
C163        C  0.99732135  0.36372419  0.16549107     0.83700
N164        N  0.99542877  0.39605375  0.14289031    -0.77000
C165        C  0.96076192  0.40900376  0.12846843     0.83800
N166        N  0.92703968  0.38912144  0.13691770    -0.78700
O167        O  0.82640655  0.24343794  0.32001273    -0.87200
C168        C  0.60379197  0.23973070  0.28282066     1.12900
O169        O  0.76319893  0.29616535  0.28210280    -1.35000
O170        O  0.68435883  0.17374964  0.25084569    -0.88700
O171        O  0.85292544  0.29682198  0.29191062    -0.89300
O172        O  0.80993427  0.28161958  0.19962843    -0.78100
O173        O  0.75101424  0.21176592  0.29053524    -1.00200
C174        C  0.71173088  0.25374566  0.15003805     1.22900
O175        O  0.72956471  0.32996093  0.21561826    -1.35100
Mn176      Mn  0.70526842  0.32132375  0.27380425     1.82100
O177        O  0.74320747  0.24798080  0.16811107    -0.77200
O178        O  0.65641891  0.20035786  0.19744351    -0.86600
C179        C  0.63077386  0.34034483  0.23268780     1.14000
C180        C  0.67044053  0.17132402  0.21643675     1.08700
O181        O  0.71605606  0.37725958  0.29785252    -0.78200
O182        O  0.69595803  0.26334972  0.24914629    -1.31800
O183        O  0.77232533  0.38051679  0.27071048    -0.97400
C184        C  0.76191970  0.35464017  0.12320206     1.07400
Mn185      Mn  0.65013085  0.26131276  0.20665504     1.48600
O186        O  0.78119733  0.36863510  0.15207368    -0.86600
Mn187      Mn  0.80907247  0.33858079  0.28421371     1.49600
O188        O  0.77482662  0.29412510  0.37168934    -0.90400
C189        C  0.77202534  0.19720483  0.26530655     1.20600
C190        C  0.78895722  0.32845684  0.37420505     1.12700
Mn191      Mn  0.75391256  0.27173909  0.22406709     1.81000
O192        O  0.64505996  0.31895658  0.20763389    -0.95600
Mn193      Mn  0.76565584  0.25312362  0.32744641     1.49300
C194        C  0.85532242  0.26227612  0.30553208     1.09200
Mn195      Mn  0.68643590  0.33266855  0.17039845     1.49900
C196        C  0.69707314  0.42243623  0.19139883     1.12100
O197        O  0.81400977  0.33791120  0.22658542    -1.01400
O198        O  0.60621395  0.25334701  0.24828510    -0.91100
C199        C  0.82834770  0.31299313  0.20509338     1.23400
O200        O  0.68688367  0.27505990  0.16479969    -1.01800
O201        O  0.63270254  0.22526735  0.30167745    -0.89200
O202        O  0.67780574  0.39362163  0.17726974    -0.88800
O203        O  0.80297544  0.34749564  0.34520463    -0.88800
Mn204      Mn  0.69346142  0.21783777  0.29200306     1.47900
O205        O  0.64926796  0.34574887  0.26401499    -0.77300
C206        C  0.74760707  0.39526524  0.29216519     1.16500
O207        O  0.77748185  0.21555537  0.23394196    -0.76000
O208        O  0.68170273  0.31125318  0.32991349    -0.75600
Mn209      Mn  0.77263701  0.37521322  0.21307634     1.51100
O210        O  0.72745709  0.34083886  0.12592099    -0.88000
O211        O  0.70810095  0.25459745  0.33350322    -0.95500
O212        O  0.73154232  0.41968073  0.20517601    -0.90500
C213        C  0.68713376  0.27981705  0.34814832     1.14200
C214        C  0.66435507  0.21376119  0.97993440     0.81200
N215        N  0.63187581  0.19125684  0.98133847    -0.77100
C216        C  0.61816616  0.17727754  0.01591239     0.83700
N217        N  0.63734122  0.18608082  0.04990830    -0.77000
C218        C  0.67057301  0.20854615  0.04844092     0.83800
N219        N  0.68371796  0.22290062  0.01350725    -0.78700
C220        C  0.80787738  0.37166913  0.01511866     0.81200
N221        N  0.80200912  0.35077698  0.98156748    -0.77100
C222        C  0.81536228  0.36490125  0.94655856     0.83700
N223        N  0.83402332  0.40062550  0.94519815    -0.77000
C224        C  0.83957731  0.42146715  0.97924214     0.83800
N225        N  0.82640700  0.40663469  0.01370611    -0.78700
C226        C  0.94352278  0.21542087  0.69316169     0.81200
N227        N  0.94487541  0.19413610  0.65880099    -0.77100
C228        C  0.98006208  0.18379878  0.64170776     0.83700
N229        N  0.01430216  0.19524934  0.65941266    -0.77000
C230        C  0.01405120  0.21672674  0.69354617     0.83800
N231        N  0.97841534  0.22681134  0.71026464    -0.78700
C232        C  0.01285453  0.36145044  0.84820020     0.81200
N233        N  0.01384331  0.39748178  0.86508706    -0.77100
C234        C  0.97989696  0.41596050  0.87479080     0.83700
N235        N  0.94499136  0.39869914  0.86690549    -0.77000
C236        C  0.94436814  0.36239657  0.85038759     0.83800
N237        N  0.97818635  0.34422627  0.84016719    -0.78700
O238        O  0.82246991  0.37206667  0.79772998    -0.87200
C239        C  0.60684455  0.33094233  0.80539708     1.12900
O240        O  0.76172004  0.32868515  0.74824993    -1.35000
O241        O  0.68806375  0.29757636  0.87073911    -0.88700
O242        O  0.85074996  0.33437993  0.75131670    -0.89300
O243        O  0.81181774  0.24541213  0.76146466    -0.78100
O244        O  0.75180860  0.33968160  0.83155653    -1.00200
C245        C  0.71035990  0.19316596  0.79008499     1.22900
O246        O  0.72822013  0.26279451  0.71511698    -1.35100
Mn247      Mn  0.70311166  0.32110611  0.72361827     1.82100
O248        O  0.74188003  0.21207373  0.79631848    -0.77200
O249        O  0.65784194  0.24473668  0.84508728    -0.86600
C250        C  0.62572230  0.27833150  0.70670966     1.14000
C251        C  0.67387920  0.26332365  0.87336377     1.08700
O252        O  0.71567230  0.34551281  0.66714670    -0.78200
O253        O  0.69558565  0.29579714  0.78152475    -1.31800
O254        O  0.77253267  0.31865435  0.66498968    -0.97400
C255        C  0.76270076  0.17380879  0.69131131     1.07400
Mn256      Mn  0.64953926  0.25288380  0.78446383     1.48600
O257        O  0.77975215  0.20208248  0.67455072    -0.86600
Mn258      Mn  0.80946778  0.32945722  0.70721885     1.49600
O259        O  0.76826419  0.41757814  0.74506938    -0.90400
C260        C  0.77370463  0.31541814  0.84629450     1.20600
C261        C  0.78571584  0.41725708  0.71217841     1.12700
Mn262      Mn  0.75367955  0.27017982  0.77295107     1.81000
O263        O  0.64171381  0.25306675  0.72683779    -0.95600
Mn264      Mn  0.76296865  0.37643836  0.78923539     1.49300
C265        C  0.85058955  0.35180117  0.78423373     1.09200
Mn266      Mn  0.68497580  0.21702935  0.71242095     1.49900
C267        C  0.69519973  0.24133465  0.62358194     1.12100
O268        O  0.81473719  0.27247747  0.70568995    -1.01400
O269        O  0.60731668  0.29608154  0.79227000    -0.91100
C270        C  0.83077220  0.25147677  0.72993969     1.23400
O271        O  0.68520172  0.20936406  0.77001887    -1.01800
O272        O  0.63527936  0.34802205  0.82189129    -0.89200
O273        O  0.67673562  0.22524753  0.65187439    -0.88800
O274        O  0.80574090  0.38896632  0.69869961    -0.88800
Mn275      Mn  0.69453295  0.33936590  0.82732232     1.47900
O276        O  0.64490473  0.30966420  0.70034866    -0.77300
C277        C  0.74855788  0.34087011  0.65028151     1.16500
O278        O  0.77814018  0.28254518  0.82936222    -0.76000
O279        O  0.67878422  0.37945042  0.73506042    -0.75600
Mn280      Mn  0.77161043  0.26138301  0.66921876     1.51100
O281        O  0.72793444  0.17448383  0.70468028    -0.88000
O282        O  0.70601148  0.38229956  0.79077147    -0.95500
O283        O  0.72953902  0.25534380  0.62601996    -0.90500
C284        C  0.68504321  0.39843285  0.76654329     1.14200
C285        C  0.14940351  0.72361508  0.98237483     0.81200
N286        N  0.13089087  0.68869060  0.98389308    -0.77100
C287        C  0.11816741  0.67368556  0.01841220     0.83700
N288        N  0.12420018  0.69434116  0.05251865    -0.77000
C289        C  0.14289413  0.73008474  0.05106096     0.83800
N290        N  0.15578701  0.74433960  0.01592728    -0.78700
C291        C  0.29382734  0.88261451  0.01705761     0.81200
N292        N  0.32599916  0.90545506  0.01515086    -0.77100
C293        C  0.33922929  0.91936421  0.98038444     0.83700
N294        N  0.31981997  0.91013361  0.94660717    -0.77000
C295        C  0.28679693  0.88733464  0.94858459     0.83800
N296        N  0.27420899  0.87304436  0.98375878    -0.78700
C297        C  0.14104628  0.99663240  0.68925683     0.81200
N298        N  0.11871097  0.99511924  0.65591244    -0.77100
C299        C  0.11042181  0.02907118  0.63639852     0.83700
N300        N  0.12474980  0.06359181  0.64988804    -0.77000
C301        C  0.14710610  0.06505433  0.68243898     0.83800
N302        N  0.15572858  0.03155572  0.70216739    -0.78700
C303        C  0.30275567  0.03086503  0.82821841     0.81200
N304        N  0.33779969  0.03242369  0.84655065    -0.77100
C305        C  0.35283618  0.06702001  0.85916066     0.83700
N306        N  0.33214907  0.10105968  0.85323114    -0.77000
C307        C  0.29635812  0.09955793  0.83475076     0.83800
N308        N  0.28200918  0.06441868  0.82193366    -0.78700
O309        O  0.35237240  0.84150676  0.75147616    -0.87200
C310        C  0.19589472  0.73903057  0.87443195     1.12900
O311        O  0.26273652  0.83027973  0.74922445    -1.35000
O312        O  0.28143271  0.70034320  0.82153087    -0.88700
O313        O  0.32614348  0.86947706  0.69789281    -0.89300
O314        O  0.27891171  0.78246138  0.66858727    -0.78100
O315        O  0.31375536  0.77534137  0.79158559    -1.00200
C316        C  0.21354519  0.69754934  0.70595740     1.22900
O317        O  0.19638260  0.79640529  0.71534621    -1.35100
Mn318      Mn  0.20456718  0.82126460  0.77339984     1.82100
O319        O  0.24483860  0.71607239  0.70059482    -0.77200
O320        O  0.22811837  0.67368330  0.79342429    -0.86600
C321        C  0.13034971  0.77940323  0.79124914     1.14000
C322        C  0.26255002  0.67131662  0.80730971     1.08700
O323        O  0.18030093  0.87717905  0.76296033    -0.78200
O324        O  0.22944398  0.76334726  0.78240008    -1.31800
O325        O  0.20747522  0.88084732  0.70675563    -0.97400
C326        C  0.17307036  0.76295260  0.62305050     1.07400
Mn327      Mn  0.18675943  0.71764185  0.78461859     1.48600
O328        O  0.18658013  0.79753983  0.62564175    -0.86600
Mn329      Mn  0.26512597  0.87578888  0.70645229     1.49600
O330        O  0.30076105  0.89383563  0.80145278    -0.90400
C331        C  0.32853304  0.75416323  0.76662340     1.20600
C332        C  0.28647027  0.92267944  0.78236476     1.12700
Mn333      Mn  0.25450043  0.77217082  0.72451462     1.81000
O334        O  0.14508577  0.75430439  0.77019432    -0.95600
Mn335      Mn  0.30791668  0.83294045  0.79241315     1.49300
C336        C  0.35504240  0.85544700  0.71708355     1.09200
Mn337      Mn  0.15118142  0.75319542  0.71264204     1.49900
C338        C  0.10416372  0.82849761  0.68981050     1.12100
O339        O  0.25177666  0.83868239  0.66480984    -1.01400
O340        O  0.17706386  0.72468298  0.84543179    -0.91100
C341        C  0.27332526  0.81389106  0.65033365     1.23400
O342        O  0.18825385  0.71190464  0.72703741    -1.01800
O343        O  0.23038907  0.75278463  0.87208693    -0.89200
O344        O  0.10677755  0.79408736  0.70372008    -0.88800
O345        O  0.27279290  0.92004028  0.74785111    -0.88800
Mn346      Mn  0.27195577  0.76121771  0.82822595     1.47900
O347        O  0.14849671  0.81086701  0.79684972    -0.77300
C348        C  0.18593896  0.89537840  0.73152552     1.16500
O349        O  0.31050677  0.74857320  0.73509401    -0.76000
O350        O  0.21420102  0.84537497  0.82948619    -0.75600
Mn351      Mn  0.19413518  0.83907851  0.66975083     1.51100
O352        O  0.15866760  0.74390095  0.65185438    -0.88000
O353        O  0.27071744  0.81883613  0.83369051    -0.95500
O354        O  0.13311360  0.84770906  0.67591120    -0.90500
C355        C  0.24551145  0.84003633  0.84800271     1.14200
C356        C  0.94705700  0.73434571  0.14768834     0.81200
N357        N  0.94570688  0.69845272  0.13056663    -0.77100
C358        C  0.97944560  0.67945386  0.12122691     0.83700
N359        N  0.01453986  0.69607977  0.12964139    -0.77000
C360        C  0.01555658  0.73226324  0.14639482     0.83800
N361        N  0.98190677  0.75092794  0.15633391    -0.78700
C362        C  0.94582777  0.87824823  0.30207028     0.81200
N363        N  0.98135270  0.86814294  0.28513623    -0.77100
C364        C  0.01633612  0.87956757  0.30202029     0.83700
N365        N  0.01522958  0.90086396  0.33633636    -0.77000
C366        C  0.98019703  0.91120612  0.35364293     0.83800
N367        N  0.94581398  0.89975791  0.33619253    -0.78700
C368        C  0.81965170  0.09665849  0.30617087     0.81200
N369        N  0.80532328  0.06152885  0.29351911    -0.77100
C370        C  0.81503590  0.02816553  0.31290584     0.83700
N371        N  0.83805056  0.02995358  0.34497098    -0.77000
C372        C  0.85199148  0.06471864  0.35826264     0.83800
N373        N  0.84261199  0.09855171  0.33905743    -0.78700
C374        C  0.66084517  0.99484641  0.16249526     0.81200
N375        N  0.67493512  0.02985101  0.17594725    -0.77100
C376        C  0.65421308  0.06344468  0.16984697     0.83700
N377        N  0.61946144  0.06211553  0.15100566    -0.77000
C378        C  0.60460936  0.02772057  0.13771788     0.83800
N379        N  0.62525875  0.99355773  0.14348949    -0.78700
O380        O  0.63758811  0.74779108  0.17393983    -0.87200
C381        C  0.85323315  0.74100932  0.21446005     1.12900
O382        O  0.69831089  0.79741193  0.21724612    -1.35000
O383        O  0.77246233  0.67484987  0.24770587    -0.88700
O384        O  0.60925928  0.79431007  0.21146542    -0.89300
O385        O  0.64822153  0.78389268  0.30043313    -0.78100
O386        O  0.70842920  0.71411112  0.20606428    -1.00200
C387        C  0.74972791  0.75511278  0.35259098     1.22900
O388        O  0.73175135  0.83038838  0.28324535    -1.35100
Mn389      Mn  0.75687924  0.82211641  0.22494111     1.82100
O390        O  0.71819631  0.74900866  0.33367522    -0.77200
O391        O  0.80267083  0.70031456  0.30062204    -0.86600
C392        C  0.83416887  0.83907517  0.26780598     1.14000
C393        C  0.78679118  0.67203752  0.28186817     1.08700
O394        O  0.74427103  0.87862985  0.20067852    -0.78200
O395        O  0.76452155  0.76412485  0.25003094    -1.31800
O396        O  0.68739659  0.88064161  0.22748400    -0.97400
C397        C  0.69696747  0.85367828  0.37219350     1.07400
Mn398      Mn  0.81063683  0.76111688  0.29284109     1.48600
O399        O  0.68009111  0.87073145  0.34399503    -0.86600
Mn400      Mn  0.65052072  0.83840776  0.21655101     1.49600
O401        O  0.69156244  0.80070169  0.12833160    -0.90400
C402        C  0.68659230  0.69931445  0.23034951     1.20600
C403        C  0.67415176  0.83362269  0.12872778     1.12700
Mn404      Mn  0.70640402  0.77256299  0.27567335     1.81000
O405        O  0.81825033  0.81880757  0.29301336    -0.95600
Mn406      Mn  0.69707591  0.75650110  0.16942758     1.49300
C407        C  0.60943067  0.76134842  0.19412103     1.09200
Mn408      Mn  0.77489896  0.83290754  0.32909717     1.49900
C409        C  0.76456234  0.92188144  0.30511863     1.12100
O410        O  0.64523473  0.83973920  0.27350326    -1.01400
O411        O  0.85281610  0.75385708  0.24943098    -0.91100
C412        C  0.62921558  0.81540655  0.29441423     1.23400
O413        O  0.77490952  0.77522873  0.33648033    -1.01800
O414        O  0.82490160  0.72426279  0.19745303    -0.89200
O415        O  0.78297987  0.89356823  0.32124329    -0.88800
O416        O  0.65427780  0.84712458  0.15710167    -0.88800
Mn417      Mn  0.76569613  0.71852197  0.20623660     1.47900
O418        O  0.81498981  0.84546102  0.23649241    -0.77300
C419        C  0.71134063  0.89540424  0.20527699     1.16500
O420        O  0.68210986  0.71619419  0.26321571    -0.76000
O421        O  0.78120325  0.81096528  0.16659559    -0.75600
Mn422      Mn  0.68829927  0.87623129  0.28473606     1.51100
O423        O  0.73172301  0.84024188  0.37155902    -0.88000
O424        O  0.75402308  0.75522092  0.16348036    -0.95500
O425        O  0.73030706  0.91943126  0.29093058    -0.90500
C426        C  0.77491060  0.77959544  0.14744421     1.14200
C427        C  0.66247659  0.89880546  0.03441643     0.81200
N428        N  0.68096278  0.88862077  0.00075264    -0.77100
C429        C  0.66396958  0.89659450  0.96596809     0.83700
N430        N  0.62788229  0.91325312  0.96468977    -0.77000
C431        C  0.60909321  0.92284439  0.99846270     0.83800
N432        N  0.62610419  0.91512865  0.03351636    -0.78700
C433        C  0.81010277  0.74375327  0.96402106     0.81200
N434        N  0.79991929  0.76048797  0.99963591    -0.77100
C435        C  0.81117674  0.74337744  0.03456200     0.83700
N436        N  0.83242282  0.70900468  0.03326748    -0.77000
C437        C  0.84285370  0.69186753  0.99813822     0.83800
N438        N  0.83153944  0.70957292  0.96384740    -0.78700
C439        C  0.82955119  0.08000295  0.68334954     0.81200
N440        N  0.84648090  0.08130133  0.64737551    -0.77100
C441        C  0.85636527  0.04751525  0.62870811     0.83700
N442        N  0.84862132  0.01245559  0.64570497    -0.77000
C443        C  0.83204034  0.01152862  0.68194853     0.83800
N444        N  0.82162874  0.04519180  0.70031775    -0.78700
C445        C  0.67484173  0.08173294  0.82881631     0.81200
N446        N  0.69154459  0.04611805  0.81863973    -0.77100
C447        C  0.67444477  0.01119606  0.82990304     0.83700
N448        N  0.64008096  0.01248375  0.85118890    -0.77000
C449        C  0.62296650  0.04764232  0.86163633     0.83800
N450        N  0.64068425  0.08193164  0.85028349    -0.78700
C451        C  0.99639046  0.87521361  0.67297004     0.81200
N452        N  0.96273282  0.86936748  0.69367794    -0.77100
C453        C  0.92785306  0.88313002  0.67960844     0.83700
N454        N  0.92675050  0.90218333  0.64408111    -0.77000
C455        C  0.96093454  0.90772317  0.62343473     0.83800
N456        N  0.99524182  0.89414478  0.63824206    -0.78700
C457        C  0.96063448  0.73296272  0.83311442     0.81200
N458        N  0.99421458  0.75211360  0.82365053    -0.77100
C459        C  0.02917285  0.73898222  0.83792282     0.83700
N460        N  0.03067465  0.70590576  0.86059015    -0.77000
C461        C  0.99665412  0.68692532  0.86971650     0.83800
N462        N  0.96204026  0.70064482  0.85582446    -0.78700
N463        N  0.95856152  0.96607811  0.44168128    -0.05100
N464        N  0.94604594  0.94861956  0.40897466    -0.57200
N465        N  0.98861207  0.95684517  0.53660411    -0.04800
N466        N  0.99820472  0.93690553  0.56834686    -0.59400
N467        N  0.95017056  0.96037299  0.53406990    -0.04400
N468        N  0.93268771  0.94300644  0.56438177    -0.57200
N469        N  0.99701165  0.96257302  0.44468238    -0.04100
N470        N  0.01140395  0.94281074  0.41394648    -0.59700
C471        C  0.97929889  0.93414302  0.39170950     0.97100
C472        C  0.96320882  0.92830898  0.58537092     0.96800
N473        N  0.06025705  0.05530110  0.55067685    -0.05300
N474        N  0.07883197  0.06529600  0.58301072    -0.57800
N475        N  0.06399705  0.02422506  0.45728295    -0.03400
N476        N  0.07748421  0.01240850  0.42285637    -0.59100
N477        N  0.06689562  0.06280685  0.46072313    -0.05300
N478        N  0.08233648  0.07792216  0.42851904    -0.58100
N479        N  0.05780785  0.01665964  0.54766891    -0.03100
N480        N  0.07484072  0.99962337  0.57833767    -0.59100
Mn481      Mn  0.02809528  0.98887774  0.49665852     1.18400
C482        C  0.08763556  0.03058973  0.60001785     0.99200
C483        C  0.08869527  0.04612737  0.40548523     0.99800
N484        N  0.89420505  0.03216403  0.53430222    -0.05300
N485        N  0.87794057  0.01721794  0.56616279    -0.61700
N486        N  0.90389407  0.07799097  0.44727808    -0.04100
N487        N  0.88720418  0.09478273  0.41627883    -0.62300
N488        N  0.90150647  0.03933680  0.44449026    -0.04800
N489        N  0.88342775  0.02907225  0.41198245    -0.61900
N490        N  0.89699136  0.07074954  0.53758133    -0.03700
N491        N  0.88259930  0.08278780  0.57155366    -0.62600
Mn492      Mn  0.92476617  0.99866583  0.48827698     1.10700
C493        C  0.87094161  0.04916147  0.58880748     1.00400
C494        C  0.87477925  0.06361861  0.39463243     1.00500
N495        N  0.01118412  0.13465744  0.46142696    -0.04900
N496        N  0.02856080  0.15196101  0.43099892    -0.60200
N497        N  0.96408734  0.13218286  0.55060521    -0.04200
N498        N  0.94944376  0.15199208  0.58119110    -0.57000
N499        N  0.00253958  0.12870138  0.55386419    -0.05500
N500        N  0.01476864  0.14627612  0.58664050    -0.59800
N501        N  0.97273845  0.13801764  0.45888123    -0.04500
N502        N  0.96302543  0.15775985  0.42708979    -0.57000
Mn503      Mn  0.03662780  0.09621448  0.50712712     1.20200
Mn504      Mn  0.93323310  0.10591721  0.49848622     1.10100
Cl505      Cl  0.98070374  0.04742531  0.49769889    -0.85000
C506        C  0.99792763  0.16644017  0.40999611     0.97400
C507        C  0.98134593  0.16075715  0.60365524     0.97200
N508        N  0.94803996  0.49747855  0.07539945    -0.05100
N509        N  0.93103531  0.46683799  0.09256737    -0.57200
N510        N  0.99421555  0.58436686  0.08469793    -0.04800
N511        N  0.00934481  0.61640902  0.10048266    -0.59400
N512        N  0.95565920  0.58787843  0.08171187    -0.04400
N513        N  0.94385567  0.62220151  0.09547972    -0.57200
N514        N  0.98668240  0.49448559  0.07777535    -0.04100
N515        N  0.99670717  0.46222393  0.09641411    -0.59700
C516        C  0.96204193  0.44520297  0.10534845     0.97100
C517        C  0.97757399  0.63942171  0.10696122     0.96800
N518        N  0.06949718  0.58662413  0.99073652    -0.05300
N519        N  0.08933291  0.61844910  0.98124235    -0.57800
N520        N  0.06025574  0.49148453  0.02028311    -0.03400
N521        N  0.07791112  0.45876469  0.03250795    -0.59100
N522        N  0.06387371  0.49482796  0.98186712    -0.05300
N523        N  0.08384547  0.46434506  0.96722621    -0.58100
N524        N  0.06606904  0.58391788  0.02915839    -0.03100
N525        N  0.08338527  0.61424994  0.04673290    -0.59100
Mn526      Mn  0.02762435  0.53809391  0.05434538     1.18400
C527        C  0.09796241  0.63539366  0.01626008     0.99200
C528        C  0.09256967  0.44186680  0.99910853     0.99800
N529        N  0.89410598  0.60061305  0.01461713    -0.05300
N530        N  0.87442062  0.63137683  0.02907328    -0.61700
N531        N  0.89187383  0.51102594  0.96786270    -0.04100
N532        N  0.87456938  0.48054695  0.95055004    -0.62300
N533        N  0.88829983  0.50869548  0.00630362    -0.04800
N534        N  0.86840962  0.47697755  0.01606808    -0.61900
N535        N  0.89757165  0.60362023  0.97616183    -0.03700
N536        N  0.88015825  0.63640808  0.96373876    -0.62600
Mn537      Mn  0.92033811  0.54859312  0.04570959     1.10700
C538        C  0.86574054  0.65369205  0.99704577     1.00400
C539        C  0.85986322  0.45971989  0.98119598     1.00500
N540        N  0.00253190  0.50759490  0.91481582    -0.04900
N541        N  0.01474483  0.47356175  0.90069664    -0.60200
N542        N  0.97092773  0.60062785  0.91901418    -0.04200
N543        N  0.96072670  0.63308024  0.90078667    -0.57000
N544        N  0.00957317  0.59791501  0.92160014    -0.05500
N545        N  0.02641696  0.62888077  0.90492291    -0.59800
N546        N  0.96392551  0.51065380  0.91198951    -0.04500
N547        N  0.94916654  0.47854473  0.89595964    -0.57000
Mn548      Mn  0.03754514  0.54688312  0.95105795     1.20200
Mn549      Mn  0.93021997  0.55683034  0.94236204     1.10100
Cl550      Cl  0.97892895  0.54756317  0.99836254    -0.85000
C551        C  0.98123746  0.45600164  0.88915530     0.97400
C552        C  0.99531482  0.65044081  0.89227616     0.97200
N553        N  0.44212370  0.13449162  0.98293705    -0.05100
N554        N  0.40992155  0.15016019  0.96802808    -0.57200
N555        N  0.52930332  0.12501768  0.02872954    -0.04800
N556        N  0.56014361  0.14192237  0.04560404    -0.59400
N557        N  0.53210325  0.12750134  0.99008962    -0.04400
N558        N  0.56447562  0.14591237  0.97992765    -0.57200
N559        N  0.43893871  0.13173159  0.02153617    -0.04100
N560        N  0.40470780  0.14552794  0.03357232    -0.59700
C561        C  0.38716992  0.15680274  0.99997311     0.97100
C562        C  0.58171147  0.15462243  0.01453246     0.96800
N563        N  0.51506399  0.01733942  0.08517456    -0.05300
N564        N  0.54528041  0.99965646  0.10254406    -0.57800
N565        N  0.42605829  0.06486955  0.08301020    -0.03400
N566        N  0.39549128  0.07951879  0.10284976    -0.59100
N567        N  0.42270447  0.02644934  0.07941795    -0.05300
N568        N  0.38992759  0.01421278  0.09692713    -0.58100
N569        N  0.51790295  0.05577198  0.08861634    -0.03100
N570        N  0.54972853  0.06515793  0.10851861    -0.59100
Mn571      Mn  0.47820741  0.09556836  0.05667030     1.18400
C572        C  0.56651458  0.03006247  0.11716786     0.99200
C573        C  0.37298444  0.04760474  0.11149553     0.99800
N574        N  0.53505470  0.06991664  0.91681352    -0.05300
N575        N  0.56778431  0.08221037  0.89919728    -0.61700
N576        N  0.44012925  0.04010814  0.90753359    -0.04100
N577        N  0.40836946  0.03032340  0.88775674    -0.62300
N578        N  0.44255717  0.07855531  0.91101661    -0.04800
N579        N  0.41207687  0.09586940  0.89374491    -0.61900
N580        N  0.53189552  0.03144187  0.91340956    -0.03700
N581        N  0.56250456  0.01686359  0.89356420    -0.62600
Mn582      Mn  0.48835072  0.10401872  0.94936509     1.10700
C583        C  0.58488891  0.04882446  0.88472533     1.00400
C584        C  0.39117777  0.06518613  0.87917115     1.00500
N585        N  0.42527694  0.96915287  0.00603474    -0.04900
N586        N  0.39276248  0.95101532  0.01615635    -0.60200
N587        N  0.51844129  0.96422049  0.97495004    -0.04200
N588        N  0.55229683  0.94948138  0.96303632    -0.57000
N589        N  0.51495667  0.96136394  0.01349918    -0.05500
N590        N  0.54657372  0.94472077  0.02855641    -0.59800
N591        N  0.42826017  0.97139783  0.96739467    -0.04500
N592        N  0.39736881  0.95458439  0.95047733    -0.57000
Mn593      Mn  0.46908449  0.99225275  0.04685616     1.20200
Mn594      Mn  0.47964365  0.00061337  0.93964614     1.10100
Cl595      Cl  0.47888443  0.04812782  0.99813271    -0.85000
C596        C  0.37558851  0.94221090  0.98154787     0.97400
C597        C  0.56926500  0.93754465  0.99670381     0.97200
O598        O  0.77347091  0.67490867  0.75000918    -0.87200
C599        C  0.67264823  0.83101609  0.87140600     1.12900
O600        O  0.76288711  0.76317591  0.74980055    -1.35000
O601        O  0.63299821  0.74493758  0.82020075    -0.88700
O602        O  0.80346410  0.70258144  0.69816645    -0.89300
O603        O  0.71643949  0.74581152  0.66623685    -0.78100
O604        O  0.70806277  0.70960974  0.79276850    -1.00200
C605        C  0.63168685  0.81592950  0.70449638     1.22900
O606        O  0.72970984  0.82909496  0.71648314    -1.35100
Mn607      Mn  0.75442846  0.82142709  0.77503775     1.82100
O608        O  0.64856159  0.78302365  0.70003979    -0.77200
O609        O  0.60728119  0.79782815  0.79015218    -0.86600
C610        C  0.71151891  0.89863858  0.79339611     1.14000
C611        C  0.60469683  0.76354255  0.80425671     1.08700
O612        O  0.81088767  0.84585952  0.76242142    -0.78200
O613        O  0.69650846  0.79608365  0.78256810    -1.31800
O614        O  0.81296301  0.81918708  0.70544742    -0.97400
C615        C  0.69343256  0.85240078  0.62781171     1.07400
Mn616      Mn  0.65071549  0.83963589  0.78374823     1.48600
O617        O  0.72621632  0.83472307  0.62757221    -0.86600
Mn618      Mn  0.80875140  0.76188953  0.70635557     1.49600
O619        O  0.82622864  0.72570481  0.80115280    -0.90400
C620        C  0.68798345  0.69340031  0.76760707     1.20600
C621        C  0.85451195  0.74179710  0.78266449     1.12700
Mn622      Mn  0.70500027  0.77055794  0.72442696     1.81000
O623        O  0.68731382  0.88252815  0.77238386    -0.95600
Mn624      Mn  0.76566845  0.71738721  0.79298185     1.49300
C625        C  0.78682892  0.67425397  0.71525156     1.09200
Mn626      Mn  0.68882799  0.87692229  0.71543643     1.49900
C627        C  0.76591742  0.91765955  0.69262333     1.12100
O628        O  0.77218531  0.77294979  0.66334336    -1.01400
O629        O  0.65619092  0.84815528  0.84300631    -0.91100
C630        C  0.74798295  0.75188339  0.64730049     1.23400
O631        O  0.64642989  0.84015051  0.72646085    -1.01800
O632        O  0.68577858  0.79616600  0.87084861    -0.89200
O633        O  0.73316825  0.91796544  0.71035722    -0.88800
O634        O  0.85202698  0.75585381  0.74835790    -0.88800
Mn635      Mn  0.69360712  0.75308213  0.82851185     1.47900
O636        O  0.74304052  0.87970713  0.79955015    -0.77300
C637        C  0.82770083  0.84133651  0.72949193     1.16500
O638        O  0.68164872  0.71238050  0.73615645    -0.76000
O639        O  0.77775224  0.80991620  0.83321480    -0.75600
Mn640      Mn  0.77057236  0.82992630  0.66862225     1.51100
O641        O  0.68026360  0.87292254  0.65590533    -0.88000
O642        O  0.75123138  0.75332395  0.83632083    -0.95500
O643        O  0.77906538  0.88947834  0.67221938    -0.90500
C644        C  0.77134563  0.77858094  0.85236903     1.14200
C645        C  0.31831088  0.85655304  0.54927826     0.81200
N646        N  0.34106731  0.88962970  0.55089167    -0.77100
C647        C  0.34943340  0.90924911  0.51701681     0.83700
N648        N  0.33477967  0.89614969  0.48251024    -0.77000
C649        C  0.31200488  0.86391034  0.48094248     0.83800
N650        N  0.30329969  0.84405119  0.51434405    -0.78700
C651        C  0.15723790  0.71722852  0.51492974     0.81200
N652        N  0.12218585  0.69892331  0.51342006    -0.77100
C653        C  0.10690056  0.68668685  0.47882289     0.83700
N654        N  0.12734762  0.69299784  0.44470319    -0.77000
C655        C  0.16315484  0.71148166  0.44616046     0.83800
N656        N  0.17774137  0.72391181  0.48132351    -0.78700
C657        C  0.80584139  0.37506646  0.48203327     0.81200
N658        N  0.78500302  0.36921150  0.51559785    -0.77100
C659        C  0.79897862  0.38290602  0.55054446     0.83700
N660        N  0.83454448  0.40193240  0.55180686    -0.77000
C661        C  0.85532116  0.40748379  0.51769859     0.83800
N662        N  0.84060029  0.39394665  0.48333486    -0.78700
C663        C  0.64464554  0.23296129  0.51748243     0.81200
N664        N  0.65417159  0.25223167  0.48400396    -0.77100
C665        C  0.63996394  0.23921709  0.44897156     0.83700
N666        N  0.61731042  0.20611667  0.44729164    -0.77000
C667        C  0.60812238  0.18701928  0.48122049     0.83800
N668        N  0.62194389  0.20063811  0.51590399    -0.78700
C669        C  0.62946442  0.86119616  0.46556843     0.81200
N670        N  0.63743949  0.84422837  0.50036587    -0.77100
C671        C  0.62708965  0.86259938  0.53404201     0.83700
N672        N  0.61049927  0.89884835  0.53313638    -0.77000
C673        C  0.60268213  0.91586384  0.49810894     0.83800
N674        N  0.61251896  0.89718933  0.46430531    -0.78700
C675        C  0.78511330  0.71551961  0.53472377     0.81200
N676        N  0.81952980  0.69430838  0.53347963    -0.77100
C677        C  0.83670574  0.68388690  0.49835063     0.83700
N678        N  0.81900845  0.69518599  0.46405381    -0.77000
C679        C  0.78481539  0.71658239  0.46419385     0.83800
N680        N  0.76803334  0.72674158  0.49977738    -0.78700
C681        C  0.44392324  0.39906615  0.81494175     0.81200
N682        N  0.47763059  0.38880183  0.79656513    -0.77100
C683        C  0.51238958  0.39675874  0.81364702     0.83700
N684        N  0.51358687  0.41346140  0.84971364    -0.77000
C685        C  0.47977652  0.42310493  0.86840645     0.83800
N686        N  0.44475068  0.41541915  0.85130744    -0.78700
C687        C  0.51411272  0.24359691  0.66772771     0.81200
N688        N  0.47851892  0.26030120  0.67800570    -0.77100
C689        C  0.44357598  0.24322393  0.66672193     0.83700
N690        N  0.44481740  0.20892487  0.64536412    -0.77000
C691        C  0.47992228  0.19182151  0.63484314     0.83800
N692        N  0.51424686  0.20948170  0.64617659    -0.78700
C693        C  0.44594556  0.85206213  0.32900961     0.81200
N694        N  0.44577842  0.88619855  0.35046567    -0.77100
C695        C  0.48004608  0.90382623  0.36191123     0.83700
N696        N  0.51519825  0.88664397  0.35159591    -0.77000
C697        C  0.51647136  0.85225555  0.33033623     0.83800
N698        N  0.48153652  0.83523125  0.31894096    -0.78700
C699        C  0.51536132  0.69539061  0.18400997     0.81200
N700        N  0.51461818  0.67877507  0.14776995    -0.77100
C701        C  0.47966978  0.67082226  0.13064858     0.83700
N702        N  0.44577375  0.68050287  0.14923150    -0.77000
C703        C  0.44685556  0.69748720  0.18521015     0.83800
N704        N  0.48158886  0.70564223  0.20227355    -0.78700
C705        C  0.78985267  0.49665998  0.33696181     0.81200
N706        N  0.82299202  0.49522652  0.35958903    -0.77100
C707        C  0.84238575  0.52921364  0.36804641     0.83700
N708        N  0.82898701  0.56371038  0.35359032    -0.77000
C709        C  0.79663538  0.56508837  0.33092647     0.83400
N710        N  0.77702987  0.53154155  0.32214799    -0.78700
C711        C  0.64448147  0.59923384  0.18107695     0.81200
N712        N  0.62582203  0.60069618  0.14538187    -0.77100
C713        C  0.62003258  0.56666886  0.12460285     0.83700
N714        N  0.63296282  0.53211967  0.13946825    -0.77000
C715        C  0.65147516  0.53062250  0.17442595     0.83800
N716        N  0.65759077  0.56415877  0.19525428    -0.78700
C717        C  0.49834461  0.71345627  0.81367258     0.81200
N718        N  0.49702338  0.69072755  0.84598228    -0.77100
C719        C  0.46247528  0.67659029  0.85962253     0.83700
N720        N  0.42843545  0.68546796  0.84056169    -0.77000
C721        C  0.42984250  0.70814730  0.80749433     0.83800
N722        N  0.46473630  0.72266151  0.79443229    -0.78700
C723        C  0.46292381  0.87227587  0.67056863     0.81200
N724        N  0.49650536  0.85144641  0.67643020    -0.77100
C725        C  0.53145457  0.86547312  0.66280428     0.83700
N726        N  0.53272213  0.90105309  0.64388001    -0.77000
C727        C  0.49863767  0.92182892  0.63832406     0.83800
N728        N  0.46423424  0.90708477  0.65176349    -0.78700
C729        C  0.79549399  0.57996919  0.64921143     0.81200
N730        N  0.83154600  0.58126095  0.63245787    -0.77100
C731        C  0.85026689  0.54747204  0.62272697     0.83700
N732        N  0.83324153  0.51241589  0.63042359    -0.77000
C733        C  0.79692054  0.51150723  0.64684033     0.83800
N734        N  0.77849440  0.54517060  0.65713804    -0.78700
C735        C  0.64953632  0.58172637  0.80296978     0.81200
N736        N  0.62804923  0.58186295  0.83711771    -0.77100
C737        C  0.61677469  0.54754237  0.85482972     0.83700
N738        N  0.62731713  0.51241187  0.83771893    -0.77000
C739        C  0.64862583  0.51115921  0.80337505     0.83800
N740        N  0.65981423  0.54611769  0.78627417    -0.78700
C741        C  0.31624019  0.49484281  0.81668354     0.81200
N742        N  0.33494289  0.49347203  0.85241521    -0.77100
C743        C  0.34066263  0.52759613  0.87314683     0.83700
N744        N  0.32762018  0.56204317  0.85822400    -0.77000
C745        C  0.30908710  0.56345473  0.82331192     0.83800
N746        N  0.30303354  0.52989108  0.80251087    -0.78700
C747        C  0.17292634  0.59693515  0.65820106     0.81200
N748        N  0.18568558  0.56178024  0.67236776    -0.77100
C749        C  0.16625346  0.52840983  0.66267760     0.83700
N750        N  0.13404653  0.53022880  0.63986995    -0.77000
C751        C  0.12064990  0.56500619  0.62610460     0.83800
N752        N  0.13989385  0.59883958  0.63544856    -0.78700
N753        N  0.03393407  0.46265974  0.48152544    -0.05100
N754        N  0.06460131  0.44286751  0.46704275    -0.57200
N755        N  0.94461908  0.46037855  0.52849887    -0.04800
N756        N  0.91436153  0.44290342  0.54599589    -0.59400
N757        N  0.94204576  0.45687468  0.49006256    -0.04400
N758        N  0.91034921  0.43683078  0.48048785    -0.57200
N759        N  0.03702876  0.46616463  0.51995972    -0.04100
N760        N  0.06974544  0.44866072  0.53237953    -0.59700
C761        C  0.08690739  0.43417064  0.49907193     0.97100
C762        C  0.89337423  0.42815271  0.51548126     0.96800
N763        N  0.94113116  0.57079523  0.58166409    -0.05300
N764        N  0.90724211  0.58279336  0.59626573    -0.57800
N765        N  0.03421465  0.53953233  0.57698353    -0.03400
N766        N  0.06680327  0.52931784  0.59492727    -0.59100
N767        N  0.03137145  0.57818741  0.57463678    -0.05300
N768        N  0.06242562  0.59502334  0.59121324    -0.58100
N769        N  0.94448056  0.53221760  0.58446489    -0.03100
N770        N  0.91274464  0.51723259  0.60094377    -0.59100
Mn771      Mn  0.99045092  0.49875234  0.55382506     1.18400
C772        C  0.89011600  0.54915232  0.60806615     0.99200
C773        C  0.08415042  0.56388701  0.60353175     0.99800
N774        N  0.93093529  0.51677675  0.42091355    -0.05300
N775        N  0.90027211  0.49975696  0.40383049    -0.61700
N776        N  0.01796788  0.56292489  0.41186908    -0.04100
N777        N  0.05021990  0.57803129  0.39649568    -0.62300
N778        N  0.02137098  0.52433725  0.41472360    -0.04800
N779        N  0.05581880  0.51251640  0.40128211    -0.61900
N780        N  0.92795982  0.55541759  0.41847480    -0.03700
N781        N  0.89565021  0.56543125  0.39988063    -0.62600
Mn782      Mn  0.98194987  0.48897430  0.45056746     1.10700
C783        C  0.87862700  0.53073581  0.39103979     1.00400
C784        C  0.07324862  0.54623211  0.39014062     1.00500
N785        N  0.01966383  0.63825198  0.50595153    -0.04900
N786        N  0.05143948  0.65805502  0.51566774    -0.60200
N787        N  0.92468161  0.62882280  0.47609805    -0.04200
N788        N  0.89192175  0.64637967  0.46380617    -0.57000
N789        N  0.92786842  0.63230870  0.51455244    -0.05500
N790        N  0.89723789  0.65212221  0.52912667    -0.59800
N791        N  0.01713746  0.63484504  0.46751841    -0.04500
N792        N  0.04754587  0.65218096  0.45014374    -0.57000
Mn793      Mn  0.98008507  0.60607034  0.54540221     1.20200
Mn794      Mn  0.97149612  0.59633757  0.44208380     1.10100
Cl795      Cl  0.98091426  0.54753693  0.49796016    -0.85000
C796        C  0.06852505  0.66672450  0.48076637     0.97400
C797        C  0.87482088  0.66087499  0.49717959     0.97200
N798        N  0.51095010  0.47106795  0.04940999    -0.05100
N799        N  0.52793594  0.45414573  0.08018328    -0.57200
N800        N  0.46472693  0.46118031  0.96273941    -0.04800
N801        N  0.44964338  0.44473582  0.93101729    -0.59400
N802        N  0.50328912  0.46404481  0.95925651    -0.04400
N803        N  0.51517575  0.44950087  0.92531411    -0.57200
N804        N  0.47230290  0.46880392  0.05245479    -0.04100
N805        N  0.46225532  0.45052197  0.08490538    -0.59700
C806        C  0.49691561  0.44166741  0.10196731     0.97100
C807        C  0.48149303  0.43768776  0.90827710     0.96800
N808        N  0.38959785  0.55548073  0.95998485    -0.05300
N809        N  0.36970252  0.56491509  0.92818455    -0.57800
N810        N  0.39883610  0.52617495  0.05515085    -0.03400
N811        N  0.38127058  0.51399146  0.08791531    -0.59100
N812        N  0.39526638  0.56459244  0.05176523    -0.05300
N813        N  0.37539456  0.57929106  0.08228599    -0.58100
N814        N  0.39299356  0.51704879  0.96278367    -0.03100
N815        N  0.37560278  0.49940820  0.93253987    -0.59100
Mn816      Mn  0.43138550  0.49195849  0.00871720     1.18400
C817        C  0.36100722  0.52984918  0.91135271     0.99200
C818        C  0.36669957  0.54741675  0.10481087     0.99800
N819        N  0.56498742  0.53117569  0.94587132    -0.05300
N820        N  0.58482661  0.51664877  0.91523024    -0.61700
N821        N  0.56745071  0.57819822  0.03529149    -0.04100
N822        N  0.58495480  0.59549946  0.06565694    -0.62300
N823        N  0.57093200  0.53974989  0.03766048    -0.04800
N824        N  0.59094019  0.52994867  0.06926773    -0.61900
N825        N  0.56161156  0.56965171  0.94279441    -0.03700
N826        N  0.57922625  0.58200289  0.91009264    -0.62600
Mn827      Mn  0.53870092  0.50032312  0.99809114     1.10700
C828        C  0.59368206  0.54865022  0.89291302     1.00400
C829        C  0.59966947  0.56480919  0.08643003     1.00500
N830        N  0.45680310  0.63138827  0.03883135    -0.04900
N831        N  0.44467915  0.64530792  0.07297081    -0.60200
N832        N  0.48830876  0.62704185  0.94575258    -0.04200
N833        N  0.49848624  0.64530573  0.91331216    -0.57000
N834        N  0.44965981  0.62453375  0.94853155    -0.05500
N835        N  0.43279684  0.64128709  0.91762634    -0.59800
N836        N  0.49541945  0.63411704  0.03573767    -0.04500
N837        N  0.51025933  0.64988445  0.06793271    -0.57000
Mn838      Mn  0.42165356  0.59521531  0.99962084     1.20200
Mn839      Mn  0.52904332  0.60366210  0.98953141     1.10100
Cl840      Cl  0.48019859  0.54779722  0.99895889    -0.85000
C841        C  0.47823911  0.65662267  0.09056247     0.97400
C842        C  0.46387957  0.65390711  0.89602882     0.97200
N843        N  0.50173673  0.10368185  0.57996378    -0.05100
N844        N  0.51422352  0.13641758  0.59744115    -0.57200
N845        N  0.47147610  0.00879057  0.58920529    -0.04800
N846        N  0.46170891  0.97712431  0.60917874    -0.59400
N847        N  0.50992176  0.01114563  0.58566823    -0.04400
N848        N  0.52724556  0.98075907  0.60307889    -0.57200
N849        N  0.46327264  0.10071659  0.58340395    -0.04100
N850        N  0.44885926  0.13146482  0.60313993    -0.59700
C851        C  0.48093811  0.15371641  0.61186900     0.97100
C852        C  0.49660307  0.95993967  0.61780463     0.96800
N853        N  0.40010376  0.99463437  0.49073017    -0.05300
N854        N  0.38148259  0.96231442  0.48078161    -0.57800
N855        N  0.39625369  0.08802166  0.52176908    -0.03400
N856        N  0.38253200  0.12233466  0.53362560    -0.59100
N857        N  0.39327003  0.08455430  0.48321189    -0.05300
N858        N  0.37753389  0.11663834  0.46813674    -0.58100
N859        N  0.40251485  0.99769741  0.52936137    -0.03100
N860        N  0.38540692  0.96708545  0.54643432    -0.59100
Mn861      Mn  0.43216595  0.04873431  0.55710789     1.18400
C862        C  0.37261742  0.94537284  0.51550064     0.99200
C863        C  0.37109060  0.13961400  0.49995021     0.99800
N864        N  0.56574502  0.01068758  0.51367799    -0.05300
N865        N  0.58161849  0.97857444  0.52853486    -0.61700
N866        N  0.55634836  0.09793687  0.46804669    -0.04100
N867        N  0.57301953  0.12894777  0.45127407    -0.62300
N868        N  0.55886657  0.10063345  0.50669017    -0.04800
N869        N  0.57703644  0.13310393  0.51696303    -0.61900
N870        N  0.56295674  0.00753828  0.47508020    -0.03700
N871        N  0.57694649  0.97340291  0.46297706    -0.62600
Mn872      Mn  0.53545392  0.05688765  0.54733317     1.10700
C873        C  0.58836884  0.95590651  0.49655142     1.00400
C874        C  0.58558896  0.15050412  0.48242406     1.00500
N875        N  0.44885040  0.08406887  0.41139335    -0.04900
N876        N  0.43133501  0.11449249  0.39420731    -0.60200
N877        N  0.49602810  0.99490198  0.41356895    -0.04200
N878        N  0.51067725  0.96435899  0.39368933    -0.57000
N879        N  0.45759630  0.99158833  0.41713047    -0.05500
N880        N  0.44536936  0.95882594  0.39952306    -0.59800
N881        N  0.48728915  0.08675893  0.40802494    -0.04500
N882        N  0.49684756  0.11867606  0.38836947    -0.57000
Mn883      Mn  0.42356454  0.03823714  0.44977431     1.20200
Mn884      Mn  0.52687005  0.04692288  0.43998974     1.10100
Cl885      Cl  0.47950897  0.04766051  0.49854229    -0.85000
C886        C  0.46185361  0.13568231  0.37977194     0.97400
C887        C  0.47878470  0.94187138  0.38495391     0.97200
O888        O  0.15692913  0.39387616  0.29875050    -0.87200
C889        C  0.19347711  0.17826833  0.30262905     1.12900
O890        O  0.19654557  0.33332988  0.24624060    -1.35000
O891        O  0.23258950  0.26037299  0.36831769    -0.88700
O892        O  0.18647200  0.42165244  0.24669726    -0.89300
O893        O  0.27788774  0.38367848  0.25980689    -0.78100
O894        O  0.18762475  0.32294009  0.33278236    -1.00200
C895        C  0.32770665  0.28015536  0.29113434     1.22900
O896        O  0.26276330  0.30033530  0.21315082    -1.35100
Mn897      Mn  0.20486734  0.27516873  0.22076675     1.82100
O898        O  0.31092719  0.31308459  0.29560157    -0.77200
O899        O  0.27941629  0.22350838  0.33967489    -0.86600
C900        C  0.24733762  0.19782473  0.20237002     1.14000
C901        C  0.26560898  0.24316143  0.36807813     1.08700
O902        O  0.18144527  0.28683710  0.16275798    -0.78200
O903        O  0.22965967  0.26711648  0.27924052    -1.31800
O904        O  0.20782981  0.34349195  0.15972251    -0.97400
C905        C  0.35458037  0.33258255  0.19123573     1.07400
Mn906      Mn  0.27062878  0.21932215  0.28019559     1.48600
O907        O  0.32633282  0.35131603  0.17529076    -0.86600
Mn908      Mn  0.19366913  0.37933913  0.20331387     1.49600
O909        O  0.10737111  0.34143971  0.24851067    -0.90400
C910        C  0.21213184  0.34371702  0.34876751     1.20600
C911        C  0.10457126  0.35551712  0.21425726     1.12700
Mn912      Mn  0.25448401  0.32562009  0.27135835     1.81000
O913        O  0.27177296  0.21377108  0.22324827    -0.95600
Mn914      Mn  0.15096481  0.33466548  0.29000786     1.49300
C915        C  0.17376021  0.42213492  0.28172034     1.09200
Mn916      Mn  0.30839855  0.25664139  0.21177527     1.49900
C917        C  0.28576630  0.26517320  0.12431205     1.12100
O918        O  0.25137650  0.38687446  0.20322174    -1.01400
O919        O  0.22655104  0.17803793  0.28551696    -0.91100
C920        C  0.27155921  0.40282876  0.22848283     1.23400
O921        O  0.31295205  0.25605824  0.26904717    -1.01800
O922        O  0.17973579  0.20655487  0.32250033    -0.89200
O923        O  0.30261768  0.24817233  0.15256034    -0.88800
O924        O  0.13283685  0.37134385  0.19544332    -0.88800
Mn925      Mn  0.18862598  0.26600489  0.32697954     1.47900
O926        O  0.21597360  0.21697804  0.19618724    -0.77300
C927        C  0.18770168  0.31823067  0.14369867     1.16500
O928        O  0.24344643  0.34999171  0.32958478    -0.76000
O929        O  0.14846790  0.25095820  0.23317124    -0.75600
Mn930      Mn  0.26553981  0.34340118  0.16725620     1.51100
O931        O  0.35185378  0.29830538  0.20528564    -0.88000
O932        O  0.14632831  0.27737996  0.29027242    -0.95500
O933        O  0.27281093  0.30011840  0.12484325    -0.90500
C934        C  0.13160517  0.25540856  0.26603762     1.14200
C935        C  0.67289517  0.65299293  0.77495915    -0.12300
C936        C  0.66227322  0.61987872  0.78568366    -0.13800
C937        C  0.78287943  0.61303634  0.67048370    -0.12300
C938        C  0.78194633  0.64005389  0.69267075    -0.13800
C939        C  0.56707044  0.84371775  0.67162178    -0.12300
C940        C  0.59612532  0.82708319  0.68405727    -0.13800
C941        C  0.53498178  0.73087205  0.80353217    -0.12300
C942        C  0.56717759  0.74516173  0.80227168    -0.13800
C943        C  0.75612978  0.73674059  0.60682027    -0.12300
C944        C  0.76764361  0.72685408  0.57354017    -0.13800
C945        C  0.66867052  0.84875203  0.59509288    -0.12300
C946        C  0.64619370  0.85087458  0.56852450    -0.13800
C947        C  0.92399115  0.74299419  0.81571065    -0.12300
C948        C  0.89188330  0.74405124  0.80125029    -0.13800
C949        C  0.89215952  0.87434493  0.70131536    -0.12300
C950        C  0.86316918  0.86188249  0.71808959    -0.13800
C951        C  0.69183943  0.97236874  0.81850926    -0.12300
C952        C  0.70333912  0.93910547  0.80855000    -0.13800
C953        C  0.81309535  0.97699442  0.69375516    -0.12300
C954        C  0.79066481  0.95040477  0.69605248    -0.13800
C955        C  0.79721570  0.76093302  0.92589825    -0.12300
C956        C  0.78648803  0.77145711  0.89277177    -0.13800
C957        C  0.67668744  0.87554853  0.93280294    -0.12300
C958        C  0.67757079  0.85357238  0.90561568    -0.13800
C959        C  0.78513422  0.63426271  0.29984701    -0.12300
C960        C  0.78648069  0.60184046  0.31367020    -0.13800
C961        C  0.66615778  0.66377439  0.21930065    -0.12300
C962        C  0.65356824  0.63474971  0.20278705    -0.13800
C963        C  0.57653086  0.73683953  0.19783610    -0.12300
C964        C  0.54979983  0.71454104  0.19582401    -0.13800
C965        C  0.58866092  0.82336603  0.30940310    -0.12300
C966        C  0.55531413  0.83478828  0.31913964    -0.13800
C967        C  0.67403451  0.84833507  0.40611372    -0.12300
C968        C  0.65128845  0.84893878  0.43269001    -0.13800
C969        C  0.76759399  0.72934524  0.42606789    -0.12300
C970        C  0.75699169  0.73997872  0.39294815    -0.13800
C971        C  0.67727407  0.85810338  0.09579483    -0.12300
C972        C  0.67461782  0.88020780  0.06899720    -0.13800
C973        C  0.78985986  0.77178414  0.10683622    -0.12300
C974        C  0.79974012  0.76062847  0.07343821    -0.13800
C975        C  0.68263789  0.95928572  0.17160855    -0.12300
C976        C  0.69965680  0.93059450  0.18442569    -0.13800
C977        C  0.78319158  0.95922812  0.30281763    -0.12300
C978        C  0.79759671  0.99137596  0.30346222    -0.13800
C979        C  0.87452097  0.85432947  0.27485739    -0.12300
C980        C  0.90765743  0.86519297  0.28517879    -0.13800
C981        C  0.88708892  0.74677178  0.19152471    -0.12300
C982        C  0.91393525  0.74664182  0.16909733    -0.13800
C983        C  0.20527607  0.66159374  0.68565692    -0.12300
C984        C  0.19206756  0.63218296  0.67099992    -0.13800
C985        C  0.29365409  0.60050579  0.81088305    -0.12300
C986        C  0.28050235  0.63321786  0.80750544    -0.13800
C987        C  0.36465529  0.73439466  0.77529591    -0.12300
C988        C  0.39431879  0.72031810  0.78851417    -0.13800
C989        C  0.39331885  0.85603238  0.69949835    -0.12300
C990        C  0.42597156  0.85981385  0.68628925    -0.13800
C991        C  0.29327819  0.82275957  0.61427365    -0.12300
C992        C  0.30691565  0.83668819  0.58467633    -0.13800
C993        C  0.16995136  0.73211492  0.55211864    -0.12300
C994        C  0.17333945  0.74506954  0.58491086    -0.13800
C995        C  0.09423621  0.77088936  0.81107381    -0.12300
C996        C  0.06463441  0.75781665  0.82539573    -0.13800
C997        C  0.06590160  0.84609670  0.68917795    -0.12300
C998        C  0.03326469  0.85934813  0.68544301    -0.13800
C999        C  0.28655268  0.96090658  0.80012930    -0.12300
C1000       C  0.29014201  0.99368500  0.81312231    -0.13800
C1001       C  0.15245763  0.96115328  0.70892792    -0.12300
C1002       C  0.16608496  0.93148408  0.72269048    -0.13800
C1003       C  0.26734968  0.87478464  0.91337910    -0.12300
C1004       C  0.25388461  0.86032443  0.88396981    -0.13800
C1005       C  0.17782414  0.73913773  0.91248773    -0.12300
C1006       C  0.16469045  0.73597885  0.94523301    -0.13800
C1007       C  0.78242386  0.45016420  0.68768620    -0.12300
C1008       C  0.78489665  0.47693043  0.66552244    -0.13800
C1009       C  0.66009833  0.47230961  0.78602936    -0.12300
C1010       C  0.67002192  0.43898329  0.77464524    -0.13800
C1011       C  0.57270843  0.35358812  0.80038382    -0.12300
C1012       C  0.54556126  0.37561653  0.80109943    -0.13800
C1013       C  0.58535273  0.27122187  0.69148229    -0.12300
C1014       C  0.55224212  0.26072093  0.68067363    -0.13800
C1015       C  0.67653367  0.24369623  0.58626753    -0.12300
C1016       C  0.66204183  0.24281573  0.55417469    -0.13800
C1017       C  0.76010633  0.36153531  0.61494205    -0.12300
C1018       C  0.77708667  0.37408853  0.58611511    -0.13800
C1019       C  0.78540079  0.13971227  0.69640968    -0.12300
C1020       C  0.80788887  0.11293119  0.69570669    -0.13800
C1021       C  0.70293428  0.15285076  0.80527247    -0.12300
C1022       C  0.69215123  0.11980971  0.81599296    -0.13800
C1023       C  0.88344009  0.34813319  0.80878862    -0.12300
C1024       C  0.91001881  0.35037735  0.83123120    -0.13800
C1025       C  0.90464501  0.22665825  0.71052071    -0.12300
C1026       C  0.87130040  0.23644442  0.72190726    -0.13800
C1027       C  0.79410612  0.32649007  0.88189783    -0.12300
C1028       C  0.80652369  0.34309477  0.91097936    -0.13800
C1029       C  0.67587132  0.24500309  0.91091557    -0.12300
C1030       C  0.67461657  0.23091879  0.94320153    -0.13800
C1031       C  0.67956499  0.46075223  0.19096090    -0.12300
C1032       C  0.66664282  0.49350627  0.18707184    -0.13800
C1033       C  0.75658377  0.43142799  0.31185779    -0.12300
C1034       C  0.77030471  0.46113901  0.32545271    -0.13800
C1035       C  0.79343008  0.35932990  0.44508374    -0.12300
C1036       C  0.78969546  0.34614211  0.41242228    -0.13800
C1037       C  0.65259287  0.25819295  0.41362588    -0.12300
C1038       C  0.66708246  0.27137406  0.38415611    -0.13800
C1039       C  0.66658069  0.10045189  0.18546234    -0.12300
C1040       C  0.67002165  0.13316261  0.19861599    -0.13800
C1041       C  0.80685190  0.13188520  0.28704047    -0.12300
C1042       C  0.79221222  0.16124629  0.27374515    -0.13800
C1043       C  0.77943670  0.35519972  0.08488201    -0.12300
C1044       C  0.79246452  0.35907560  0.05216426    -0.13800
C1045       C  0.70304966  0.23424078  0.11375525    -0.12300
C1046       C  0.68975117  0.22049660  0.08395703    -0.13800
C1047       C  0.03429296  0.35415370  0.18261522    -0.12300
C1048       C  0.06682284  0.35345096  0.19624790    -0.13800
C1049       C  0.86432619  0.32175587  0.18492644    -0.12300
C1050       C  0.89377384  0.33581764  0.17107718    -0.13800
C1051       C  0.09641471  0.23443547  0.27727124    -0.12300
C1052       C  0.06769781  0.22111957  0.29375756    -0.13800
C1053       C  0.89337420  0.24420541  0.30528205    -0.12300
C1054       C  0.92617249  0.23124930  0.30860863    -0.13800
C1055       C  0.40781671  0.83503368  0.31609181    -0.12300
C1056       C  0.37459564  0.82479178  0.30545822    -0.13800
C1057       C  0.41384298  0.71925527  0.19725174    -0.12300
C1058       C  0.38724740  0.74200386  0.19755833    -0.13800
C1059       C  0.20073887  0.73445029  0.38172218    -0.12300
C1060       C  0.18446081  0.72130868  0.41061676    -0.13800
C1061       C  0.28126901  0.85323143  0.41152202    -0.12300
C1062       C  0.29478349  0.85409282  0.44408921    -0.13800
C1063       C  0.08849781  0.85846760  0.27358846    -0.12300
C1064       C  0.05509263  0.86823278  0.28465712    -0.13800
C1065       C  0.05000872  0.74380079  0.16570716    -0.12300
C1066       C  0.07674875  0.74607726  0.18796788    -0.13800
C1067       C  0.15241601  0.75177220  0.08657200    -0.12300
C1068       C  0.16549698  0.76857731  0.11526839    -0.13800
C1069       C  0.28397198  0.85138059  0.08630402    -0.12300
C1070       C  0.28441187  0.86542267  0.05398338    -0.13800
C1071       C  0.26619596  0.12386365  0.17763939    -0.12300
C1072       C  0.25503005  0.15725216  0.18742459    -0.13800
C1073       C  0.26668536  0.97638534  0.18090323    -0.12300
C1074       C  0.25648727  0.94319507  0.19169893    -0.13800
C1075       C  0.14676496  0.11852984  0.30090036    -0.12300
C1076       C  0.16904580  0.14528914  0.29897414    -0.13800
C1077       C  0.15081613  0.98251873  0.29833435    -0.12300
C1078       C  0.17339276  0.95578343  0.29849395    -0.13800
C1079       C  0.30713110  0.45931856  0.79484757    -0.12300
C1080       C  0.29428519  0.43061075  0.77788287    -0.13800
C1081       C  0.17627164  0.45936881  0.69428931    -0.12300
C1082       C  0.17575219  0.49156296  0.67997373    -0.13800
C1083       C  0.37135256  0.27149900  0.68818316    -0.12300
C1084       C  0.40473790  0.26040891  0.67825574    -0.13800
C1085       C  0.38253388  0.35832797  0.80025221    -0.12300
C1086       C  0.40934288  0.38045653  0.80276488    -0.13800
C1087       C  0.27484310  0.13510238  0.82536606    -0.12300
C1088       C  0.25858146  0.16415020  0.81253755    -0.13800
C1089       C  0.17801380  0.13430687  0.69382527    -0.12300
C1090       C  0.16424225  0.10185168  0.69265099    -0.13800
C1091       C  0.08524898  0.24034697  0.72125925    -0.12300
C1092       C  0.05212311  0.22964974  0.71074318    -0.13800
C1093       C  0.04583755  0.34942651  0.82642672    -0.12300
C1094       C  0.07240537  0.34896667  0.80367610    -0.13800
C1095       C  0.28021049  0.21937802  0.06390840    -0.12300
C1096       C  0.28000946  0.24216940  0.09047362    -0.13800
C1097       C  0.28222182  0.21477719  0.92807951    -0.12300
C1098       C  0.28033305  0.23721538  0.90147155    -0.13800
C1099       C  0.16199672  0.33543970  0.07007155    -0.12300
C1100       C  0.17267010  0.32519604  0.10327322    -0.13800
C1101       C  0.16889302  0.32396913  0.88922472    -0.12300
C1102       C  0.15909457  0.33529604  0.92258045    -0.13800
C1103       C  0.59480740  0.36060722  0.22412849    -0.12300
C1104       C  0.56535737  0.37478108  0.21041584    -0.13800
C1105       C  0.42469974  0.36446917  0.19296754    -0.12300
C1106       C  0.39222289  0.35073546  0.19350443    -0.13800
C1107       C  0.53298677  0.23687467  0.31400937    -0.12300
C1108       C  0.56573972  0.24005618  0.30089702    -0.13800
C1109       C  0.39153482  0.25196934  0.32532768    -0.12300
C1110       C  0.36285617  0.26867772  0.31212749    -0.13800
C1111       C  0.28667177  0.44323445  0.22154363    -0.12300
C1112       C  0.29742319  0.47641455  0.21129516    -0.13800
C1113       C  0.29053544  0.65723868  0.22260712    -0.12300
C1114       C  0.30036859  0.62387160  0.21140971    -0.13800
C1115       C  0.18007685  0.48261639  0.32739653    -0.12300
C1116       C  0.17986356  0.45592927  0.30473677    -0.13800
C1117       C  0.17750202  0.61862556  0.33150719    -0.12300
C1118       C  0.17920383  0.64531106  0.30912610    -0.13800
C1119       C  0.19360902  0.36817413  0.42285526    -0.12300
C1120       C  0.20459803  0.35847669  0.38940604    -0.13800
C1121       C  0.19343014  0.36487531  0.57025092    -0.12300
C1122       C  0.20373730  0.35399367  0.60336455    -0.13800
C1123       C  0.31197590  0.24414139  0.42808233    -0.12300
C1124       C  0.28986128  0.24639183  0.40122103    -0.13800
C1125       C  0.30903063  0.24634138  0.56428579    -0.12300
C1126       C  0.28674569  0.24624376  0.59125011    -0.13800
loop_ 
_geom_bond_atom_site_label_1 
_geom_bond_atom_site_label_2 
_geom_bond_distance 
_geom_bond_site_symmetry_2 
_ccdc_geom_bond_type 
C1            N2   1.349       .  A
C1            N6   1.345       .  A
C1         C1125   1.399       .  S
N2            C3   1.349       .  A
C3            N4   1.351       .  A
C3          C863   1.442       .  S
N4            C5   1.352       .  A
C5            N6   1.346       .  A
C5         C1123   1.399       .  S
C7            N8   1.377       .  A
C7           N12   1.369       .  A
C7         C1119   1.489       .  S
N8            C9   1.376       .  A
C9           N10   1.367       .  A
C9         C1121   1.486       .  S
N10          C11   1.367       .  A
C11          N12   1.369       .  A
C11         C761   1.506       .  S
C13          N14   1.345       .  A
C13          N18   1.349       .  A
C13        C1115   1.400       .  S
N14          C15   1.346       .  A
C15          N16   1.352       .  A
C15        C1117   1.399       .  S
N16          C17   1.351       .  A
C17          N18   1.349       .  A
C17         C784   1.444       .  S
C19          N20   1.376       .  A
C19          N24   1.366       .  A
C19        C1112   1.486       .  S
N20          C21   1.377       .  A
C21          N22   1.370       .  A
C21        C1114   1.490       .  S
N22          C23   1.370       .  A
C23          N24   1.367       .  A
C23         C818   1.507       .  S
C25          N26   1.355       .  A
C25          N30   1.345       .  A
C25        C1107   1.427       .  S
N26          C27   1.360       .  A
C27          N28   1.372       .  A
C27        C1109   1.448       .  S
N28          C29   1.368       .  A
C29          N30   1.350       .  A
C29         C886   1.473       .  S
C31          N32   1.343       .  A
C31          N36   1.353       .  A
C31        C1105   1.421       .  S
N32          C33   1.349       .  A
C33          N34   1.361       .  A
C33         C806   1.460       .  S
N34          C35   1.366       .  A
C35          N36   1.359       .  A
C35        C1104   1.433       .  S
C37          N38   1.370       .  A
C37          N42   1.377       .  A
C37        C1102   1.491       .  S
N38          C39   1.370       .  A
C39          N40   1.367   1_556  A
C39         C528   1.507       .  S
N40          C41   1.366       .  A
C41          N42   1.376   1_554  A
C41        C1099   1.486       .  S
C43          N44   1.346       .  A
C43          N48   1.352       .  A
C43        C1097   1.399       .  S
N44          C45   1.344   1_556  A
C45          N46   1.350       .  A
C45        C1095   1.399       .  S
N46          C47   1.350   1_554  A
C47          N48   1.351       .  A
C47         C561   1.444       .  S
O49          C76   1.264       .  A
O49         Mn75   2.066       .  S
C50        C1126   1.401       .  S
C50          O83   1.263       .  A
C50          O80   1.259       .  A
O51         Mn58   2.169       .  S
O51         Mn69   2.141       .  S
O51         Mn73   2.160       .  S
O51         Mn75   2.142       .  S
O52          C62   1.272       .  A
O52         Mn86   2.101       .  S
O53          C76   1.259       .  A
O53         Mn69   2.039       .  S
O54          C81   1.265       .  A
O54         Mn73   2.175       .  S
O55         Mn86   1.969       .  S
O55         Mn75   1.975       .  S
O55          C71   1.225       .  S
C56        C1088   1.443       .  S
C56          O59   1.261       .  A
C56          O82   1.218       .  S
O57         Mn77   2.133       .  S
O57         Mn58   2.176       .  S
O57         Mn91   2.134       .  S
O57         Mn73   2.176       .  S
Mn58         O87   2.173       .  S
Mn58         O63   2.132       .  S
Mn58         O90   2.164       .  S
Mn58         O64   2.162       .  S
O59         Mn73   2.127       .  S
O60          C62   1.263       .  A
O60         Mn67   2.060       .  S
C61        C1083   1.489       .  S
C61          O87   1.264       .  A
C61          O74   1.220       .  S
C62        C1089   1.423       .  S
O63          C88   1.262       .  A
O64         Mn67   2.143       .  S
O64         Mn86   2.141       .  S
O64         Mn73   2.170       .  S
O65         Mn69   1.950       .  S
O65         Mn91   1.942       .  S
O65          C88   1.217       .  S
C66        C1098   1.400       .  S
C66          O92   1.259       .  A
C66          O68   1.262       .  A
Mn67         O80   2.041       .  S
Mn67         O82   1.951       .  S
Mn67         O74   1.956       .  S
O68         Mn91   2.060       .  S
Mn69         O85   2.060       .  S
Mn69         O79   1.957       .  S
O70          C72   1.272       .  A
O70         Mn75   2.097       .  S
C71        C1091   1.485       .  S
C71          O89   1.267       .  A
C72        C1081   1.421       .  S
C72          O85   1.263       .  A
Mn73         O89   2.165       .  S
O74         Mn77   1.943       .  S
Mn75         O93   1.968       .  S
C76        C1094   1.400       .  S
Mn77         O84   2.060       .  S
Mn77         O92   2.047       .  S
Mn77         O82   1.945       .  S
C78        C1085   1.400       .  S
C78          O84   1.262       .  A
C78          O94   1.259       .  A
O79         Mn91   1.942       .  S
O79          C81   1.220       .  S
C81        C1101   1.490       .  S
O83         Mn86   2.064       .  S
Mn86         O93   1.976       .  S
C88        C1080   1.445       .  S
O90          C95   1.267       .  A
Mn91         O94   2.045       .  S
O93          C95   1.225       .  S
C95        C1122   1.485       .  S
C96          N97   1.349       .  A
C96         N101   1.345       .  A
C96        C1077   1.399   1_545  S
N97          C98   1.349       .  A
C98          N99   1.351       .  A
C98         C483   1.443       .  S
N99         C100   1.352       .  A
C100        N101   1.346       .  A
C100       C1075   1.399       .  S
C102        N103   1.376       .  A
C102        N107   1.367       .  A
C102       C1073   1.487   1_545  S
N103        C104   1.377       .  A
C104        N105   1.370       .  A
C104       C1071   1.490       .  S
N105        C106   1.369       .  A
C106        N107   1.367       .  A
C106        C573   1.507       .  S
O108        C135   1.263       .  A
O108       Mn134   2.059       .  S
C109       C1118   1.401       .  S
C109        O142   1.263       .  A
C109        O139   1.259       .  A
O110       Mn117   2.160       .  S
O110       Mn128   2.142       .  S
O110       Mn132   2.168       .  S
O110       Mn134   2.141       .  S
O111        C121   1.259       .  A
O111       Mn145   2.046       .  S
O112        C135   1.272       .  A
O112       Mn128   2.099       .  S
O113        C140   1.267       .  A
O113       Mn132   2.164       .  S
O114       Mn145   1.943       .  S
O114       Mn134   1.951       .  S
O114        C130   1.218       .  S
C115       C1063   1.487       .  S
C115        O118   1.264       .  A
C115        O141   1.220       .  S
O116       Mn136   2.142       .  S
O116       Mn117   2.170       .  S
O116       Mn150   2.142       .  S
O116       Mn132   2.162       .  S
Mn117       O146   2.126       .  S
Mn117       O122   2.163       .  S
Mn117       O149   2.173       .  S
Mn117       O123   2.176       .  S
O118       Mn132   2.171       .  S
O119        C121   1.262       .  A
O119       Mn126   2.061       .  S
C120       C1059   1.443       .  S
C120        O146   1.261       .  A
C120        O133   1.218       .  S
C121       C1066   1.400       .  S
O122        C147   1.267       .  A
O123       Mn126   2.134       .  S
O123       Mn145   2.133       .  S
O123       Mn132   2.177       .  S
O124       Mn128   1.976       .  S
O124       Mn150   1.969       .  S
O124        C147   1.225       .  S
C125       C1078   1.401       .  S
C125        O151   1.259       .  A
C125        O127   1.264       .  A
Mn126       O139   2.047       .  S
Mn126       O141   1.942       .  S
Mn126       O133   1.944       .  S
O127       Mn150   2.066       .  S
Mn128       O144   2.067       .  S
Mn128       O138   1.970       .  S
O129        C131   1.259       .  A
O129       Mn134   2.040       .  S
C130       C1068   1.445       .  S
C130        O148   1.262       .  A
C131       C1058   1.401       .  S
C131        O144   1.264       .  A
Mn132       O148   2.131       .  S
O133       Mn136   1.951       .  S
Mn134       O152   1.957       .  S
C135       C1069   1.422       .  S
Mn136       O143   2.059       .  S
Mn136       O151   2.041       .  S
Mn136       O141   1.956       .  S
C137       C1061   1.423       .  S
C137        O143   1.262       .  A
C137        O153   1.273       .  A
O138       Mn150   1.977       .  S
O138        C140   1.226       .  S
C140       C1074   1.486       .  S
O142       Mn145   2.061       .  S
Mn145       O152   1.942       .  S
C147       C1056   1.485       .  S
O149        C154   1.264       .  A
Mn150       O153   2.102       .  S
O152        C154   1.220       .  S
C154       C1113   1.488       .  S
C155        N156   1.345       .  A
C155        N160   1.355       .  A
C155       C1054   1.427       .  S
N156        C157   1.350       .  A
C157        N158   1.367   1_655  A
C157        C506   1.472       .  S
N158        C159   1.371       .  A
C159        N160   1.360   1_455  A
C159       C1052   1.446       .  S
C161        N162   1.359       .  A
C161        N166   1.366       .  A
C161       C1050   1.433       .  S
N162        C163   1.354       .  A
C163        N164   1.343       .  A
C163       C1047   1.422   1_655  S
N164        C165   1.349       .  A
C165        N166   1.361       .  A
C165        C516   1.461       .  S
O167        C194   1.272       .  A
O167       Mn193   2.101       .  S
C168       C1108   1.428       .  S
C168        O201   1.272       .  A
C168        O198   1.264       .  A
O169       Mn176   2.161       .  S
O169       Mn187   2.125       .  S
O169       Mn191   2.159       .  S
O169       Mn193   2.128       .  S
O170        C180   1.264       .  A
O170       Mn204   2.068       .  S
O171        C194   1.265       .  A
O171       Mn187   2.070       .  S
O172        C199   1.250       .  A
O172       Mn191   2.101       .  S
O173       Mn204   1.964       .  S
O173       Mn193   1.945       .  S
O173        C189   1.215       .  S
C174       C1045   1.428       .  S
C174        O177   1.249       .  A
C174        O200   1.215       .  S
O175       Mn195   2.127       .  S
O175       Mn176   2.160       .  S
O175       Mn209   2.126       .  S
O175       Mn191   2.160       .  S
Mn176       O205   2.099       .  S
Mn176       O181   2.098       .  S
Mn176       O208   2.093       .  S
Mn176       O182   2.160       .  S
O177       Mn191   2.094       .  S
O178        C180   1.272       .  A
O178       Mn185   2.101       .  S
C179       C1103   1.431       .  S
C179        O205   1.250       .  A
C179        O192   1.215       .  S
C180       C1040   1.428       .  S
O181        C206   1.250       .  A
O182       Mn185   2.126       .  S
O182       Mn204   2.128       .  S
O182       Mn191   2.161       .  S
O183       Mn187   1.947       .  S
O183       Mn209   1.964       .  S
O183        C206   1.215       .  S
C184       C1043   1.429       .  S
C184        O210   1.265       .  A
C184        O186   1.272       .  A
Mn185       O198   2.070       .  S
Mn185       O200   1.947       .  S
Mn185       O192   1.964       .  S
O186       Mn209   2.101       .  S
Mn187       O203   2.101       .  S
Mn187       O197   1.963       .  S
O188        C190   1.264       .  A
O188       Mn193   2.069       .  S
C189       C1042   1.428       .  S
C189        O207   1.249       .  A
C190       C1036   1.428       .  S
C190        O203   1.272       .  A
Mn191       O207   2.094       .  S
O192       Mn195   1.945       .  S
Mn193       O211   1.964       .  S
C194       C1053   1.428       .  S
Mn195       O202   2.101       .  S
Mn195       O210   2.071       .  S
Mn195       O200   1.964       .  S
C196       C1031   1.428       .  S
C196        O202   1.272       .  A
C196        O212   1.265       .  A
O197       Mn209   1.945       .  S
O197        C199   1.215       .  S
C199       C1049   1.431       .  S
O201       Mn204   2.102       .  S
Mn204       O211   1.945       .  S
C206       C1033   1.430       .  S
O208        C213   1.249       .  A
Mn209       O212   2.071       .  S
O211        C213   1.215       .  S
C213       C1038   1.428       .  S
C214        N215   1.344       .  A
C214        N219   1.353   1_556  A
C214       C1030   1.421       .  S
N215        C216   1.350   1_556  A
C216        N217   1.360       .  A
C216        C562   1.460       .  S
N217        C218   1.364       .  A
C218        N219   1.358       .  A
C218       C1046   1.430       .  S
C220        N221   1.355   1_554  A
C220        N225   1.346       .  A
C220       C1044   1.428       .  S
N221        C222   1.360       .  A
C222        N223   1.371       .  A
C222       C1028   1.447       .  S
N223        C224   1.367       .  A
C224        N225   1.351   1_556  A
C224        C539   1.473       .  S
C226        N227   1.370       .  A
C226        N231   1.377       .  A
C226       C1025   1.492       .  S
N227        C228   1.370       .  A
C228        N229   1.367   1_655  A
C228        C507   1.508       .  S
N229        C230   1.367       .  A
C230        N231   1.376   1_455  A
C230       C1092   1.487       .  S
C232        N233   1.349       .  A
C232        N237   1.344   1_455  A
C232       C1093   1.399       .  S
N233        C234   1.350   1_455  A
C234        N235   1.351       .  A
C234        C551   1.443       .  S
N235        C236   1.352       .  A
C236        N237   1.345       .  A
C236       C1024   1.398       .  S
O238        C265   1.259       .  A
O238       Mn264   2.046       .  S
C239       C1011   1.400       .  S
C239        O272   1.259       .  A
C239        O269   1.263       .  A
O240       Mn247   2.176       .  S
O240       Mn258   2.134       .  S
O240       Mn262   2.176       .  S
O240       Mn264   2.133       .  S
O241        C251   1.263       .  A
O241       Mn275   2.061       .  S
O242        C265   1.262       .  A
O242       Mn258   2.061       .  S
O243        C270   1.265       .  A
O243       Mn262   2.176       .  S
O244       Mn275   1.950       .  S
O244       Mn264   1.944       .  S
O244        C260   1.218       .  S
C245       C1021   1.486       .  S
C245        O248   1.267       .  A
C245        O271   1.224       .  S
O246       Mn266   2.143       .  S
O246       Mn247   2.170       .  S
O246       Mn280   2.141       .  S
O246       Mn262   2.162       .  S
Mn247       O276   2.166       .  S
Mn247       O252   2.134       .  S
Mn247       O279   2.176       .  S
Mn247       O253   2.163       .  S
O248       Mn262   2.167       .  S
O249        C251   1.272       .  A
O249       Mn256   2.098       .  S
C250       C1013   1.486       .  S
C250        O276   1.268       .  A
C250        O263   1.225       .  S
C251       C1029   1.422       .  S
O252        C277   1.262       .  A
O253       Mn256   2.142       .  S
O253       Mn275   2.142       .  S
O253       Mn262   2.171       .  S
O254       Mn258   1.942       .  S
O254       Mn280   1.950       .  S
O254        C277   1.217       .  S
C255       C1019   1.400       .  S
C255        O281   1.263       .  A
C255        O257   1.259       .  A
Mn256       O269   2.063       .  S
Mn256       O271   1.967       .  S
Mn256       O263   1.975       .  S
O257       Mn280   2.040       .  S
Mn258       O274   2.045       .  S
Mn258       O268   1.942       .  S
O259        C261   1.262       .  A
O259       Mn264   2.061       .  S
C260       C1027   1.444       .  S
C260        O278   1.262       .  A
C261       C1007   1.399       .  S
C261        O274   1.259       .  A
Mn262       O278   2.131       .  S
O263       Mn266   1.968       .  S
Mn264       O282   1.944       .  S
C265       C1023   1.400       .  S
Mn266       O273   2.095       .  S
Mn266       O281   2.065       .  S
Mn266       O271   1.974       .  S
C267       C1015   1.421       .  S
C267        O273   1.271       .  A
C267        O283   1.263       .  A
O268       Mn280   1.957       .  S
O268        C270   1.219       .  S
C270       C1026   1.490       .  S
O272       Mn275   2.041       .  S
Mn275       O282   1.957       .  S
C277       C1017   1.446       .  S
O279        C284   1.265       .  A
Mn280       O283   2.061       .  S
O282        C284   1.220       .  S
C284       C1010   1.491       .  S
C285        N286   1.345       .  A
C285        N290   1.355   1_556  A
C285       C1006   1.427       .  S
N286        C287   1.350   1_556  A
C287        N288   1.368       .  A
C287        C527   1.473       .  S
N288        C289   1.372       .  A
C289        N290   1.360       .  A
C289       C1067   1.448       .  S
C291        N292   1.343       .  A
C291        N296   1.353   1_554  A
C291       C1070   1.421       .  S
N292        C293   1.349   1_554  A
C293        N294   1.360       .  A
C293        C596   1.460       .  S
N294        C295   1.366       .  A
C295        N296   1.359       .  A
C295       C1003   1.431       .  S
C297        N298   1.365       .  A
C297        N302   1.359   1_565  A
C297       C1001   1.432       .  S
N298        C299   1.360   1_565  A
C299        N300   1.349       .  A
C299        C482   1.460       .  S
N300        C301   1.343       .  A
C301        N302   1.353       .  A
C301       C1090   1.422       .  S
C303        N304   1.345       .  A
C303        N308   1.355       .  A
C303       C1000   1.428   1_545  S
N304        C305   1.351       .  A
C305        N306   1.366       .  A
C305        C584   1.471       .  S
N306        C307   1.370       .  A
C307        N308   1.360       .  A
C307       C1087   1.445       .  S
O309        C336   1.265       .  A
O309       Mn335   2.070       .  S
C310       C1005   1.428       .  S
C310        O343   1.264       .  A
C310        O340   1.272       .  A
O311       Mn318   2.159       .  S
O311       Mn329   2.126       .  S
O311       Mn333   2.160       .  S
O311       Mn335   2.127       .  S
O312        C322   1.272       .  A
O312       Mn346   2.101       .  S
O313        C336   1.272       .  A
O313       Mn329   2.101       .  S
O314        C341   1.250       .  A
O314       Mn333   2.100       .  S
O315       Mn346   1.946       .  S
O315       Mn335   1.965       .  S
O315        C331   1.215       .  S
C316        C983   1.428       .  S
C316        O319   1.249       .  A
C316        O342   1.216       .  S
O317       Mn337   2.128       .  S
O317       Mn318   2.160       .  S
O317       Mn351   2.125       .  S
O317       Mn333   2.159       .  S
Mn318       O347   2.092       .  S
Mn318       O323   2.098       .  S
Mn318       O350   2.097       .  S
Mn318       O324   2.160       .  S
O319       Mn333   2.095       .  S
O320        C322   1.264       .  A
O320       Mn327   2.069       .  S
C321        C995   1.427       .  S
C321        O347   1.249       .  A
C321        O334   1.216       .  S
C322        C986   1.428       .  S
O323        C348   1.250       .  A
O324       Mn327   2.127       .  S
O324       Mn346   2.127       .  S
O324       Mn333   2.161       .  S
O325       Mn329   1.964       .  S
O325       Mn351   1.946       .  S
O325        C348   1.215       .  S
C326        C994   1.428       .  S
C326        O352   1.272       .  A
C326        O328   1.265       .  A
Mn327       O340   2.102       .  S
Mn327       O342   1.964       .  S
Mn327       O334   1.946       .  S
O328       Mn351   2.070       .  S
Mn329       O345   2.071       .  S
Mn329       O339   1.946       .  S
O330        C332   1.272       .  A
O330       Mn335   2.102       .  S
C331        C987   1.428       .  S
C331        O349   1.249       .  A
C332        C999   1.429       .  S
C332        O345   1.265       .  A
Mn333       O349   2.093       .  S
O334       Mn337   1.964       .  S
Mn335       O353   1.946       .  S
C336        C989   1.428       .  S
Mn337       O344   2.070       .  S
Mn337       O352   2.101       .  S
Mn337       O342   1.945       .  S
C338        C997   1.428       .  S
C338        O344   1.264       .  A
C338        O354   1.272       .  A
O339       Mn351   1.963       .  S
O339        C341   1.215       .  S
C341        C991   1.431       .  S
O343       Mn346   2.069       .  S
Mn346       O353   1.964       .  S
C348       C1002   1.430       .  S
O350        C355   1.250       .  A
Mn351       O354   2.101       .  S
O353        C355   1.215       .  S
C355       C1004   1.429       .  S
C356        N357   1.349       .  A
C356        N361   1.344       .  A
C356        C982   1.399       .  S
N357        C358   1.349       .  A
C358        N359   1.351   1_655  A
C358        C517   1.443       .  S
N359        C360   1.352       .  A
C360        N361   1.346   1_455  A
C360       C1065   1.399       .  S
C362        N363   1.376       .  A
C362        N367   1.367       .  A
C362        C980   1.487       .  S
N363        C364   1.377   1_655  A
C364        N365   1.369       .  A
C364       C1064   1.489       .  S
N365        C366   1.369   1_455  A
C366        N367   1.367       .  A
C366        C471   1.507       .  S
C368        N369   1.358       .  A
C368        N373   1.365       .  A
C368       C1041   1.430       .  S
N369        C370   1.352       .  A
C370        N371   1.343       .  A
C370        C978   1.420   1_545  S
N371        C372   1.349       .  A
C372        N373   1.360       .  A
C372        C494   1.460       .  S
C374        N375   1.360   1_565  A
C374        N379   1.372       .  A
C374        C975   1.449       .  S
N375        C376   1.355       .  A
C376        N377   1.345       .  A
C376       C1039   1.427       .  S
N377        C378   1.350       .  A
C378        N379   1.368   1_545  A
C378        C572   1.473       .  S
O380        C407   1.259       .  A
O380       Mn406   2.047       .  S
C381        C981   1.401       .  S
C381        O414   1.259       .  A
C381        O411   1.263       .  A
O382       Mn389   2.176       .  S
O382       Mn400   2.134       .  S
O382       Mn404   2.176       .  S
O382       Mn406   2.133       .  S
O383        C393   1.263       .  A
O383       Mn417   2.061       .  S
O384        C407   1.262       .  A
O384       Mn400   2.060       .  S
O385        C412   1.265       .  A
O385       Mn404   2.177       .  S
O386       Mn417   1.950       .  S
O386       Mn406   1.944       .  S
O386        C402   1.218       .  S
C387        C970   1.486       .  S
C387        O390   1.267       .  A
C387        O413   1.225       .  S
O388       Mn408   2.143       .  S
O388       Mn389   2.170       .  S
O388       Mn422   2.141       .  S
O388       Mn404   2.160       .  S
Mn389       O418   2.165       .  S
Mn389       O394   2.133       .  S
Mn389       O421   2.175       .  S
Mn389       O395   2.163       .  S
O390       Mn404   2.166       .  S
O391        C393   1.272       .  A
O391       Mn398   2.100       .  S
C392        C979   1.486       .  S
C392        O418   1.267       .  A
C392        O405   1.225       .  S
C393        C959   1.423       .  S
O394        C419   1.262       .  A
O395       Mn398   2.142       .  S
O395       Mn417   2.143       .  S
O395       Mn404   2.172       .  S
O396       Mn400   1.942       .  S
O396       Mn422   1.950       .  S
O396        C419   1.217       .  S
C397        C967   1.401       .  S
C397        O423   1.264       .  A
C397        O399   1.259       .  A
Mn398       O411   2.065       .  S
Mn398       O413   1.968       .  S
Mn398       O405   1.976       .  S
O399       Mn422   2.040       .  S
Mn400       O416   2.045       .  S
Mn400       O410   1.942       .  S
O401        C403   1.262       .  A
O401       Mn406   2.061       .  S
C402        C961   1.442       .  S
C402        O420   1.261       .  A
C403        C971   1.399       .  S
C403        O416   1.258       .  A
Mn404       O420   2.127       .  S
O405       Mn408   1.969       .  S
Mn406       O424   1.943       .  S
C407        C963   1.400       .  S
Mn408       O415   2.096       .  S
Mn408       O423   2.066       .  S
Mn408       O413   1.975       .  S
C409        C977   1.421       .  S
C409        O415   1.271       .  A
C409        O425   1.263       .  A
O410       Mn422   1.957       .  S
O410        C412   1.219       .  S
C412        C965   1.490       .  S
O414       Mn417   2.041       .  S
Mn417       O424   1.957       .  S
C419        C976   1.446       .  S
O421        C426   1.265       .  A
Mn422       O425   2.059       .  S
O424        C426   1.220       .  S
C426        C973   1.490       .  S
C427        N428   1.346       .  A
C427        N432   1.352       .  A
C427        C972   1.398       .  S
N428        C429   1.344   1_554  A
C429        N430   1.348       .  A
C429        C957   1.398       .  S
N430        C431   1.349       .  A
C431        N432   1.351   1_556  A
C431        C597   1.441       .  S
C433        N434   1.377       .  A
C433        N438   1.368       .  A
C433        C955   1.488       .  S
N434        C435   1.377   1_556  A
C435        N436   1.370       .  A
C435        C974   1.492       .  S
N436        C437   1.370   1_554  A
C437        N438   1.368       .  A
C437        C538   1.509       .  S
C439        N440   1.349       .  A
C439        N444   1.344       .  A
C439       C1020   1.398       .  S
N440        C441   1.349       .  A
C441        N442   1.351       .  A
C441        C493   1.442       .  S
N442        C443   1.352       .  A
C443        N444   1.345       .  A
C443        C953   1.398   1_545  S
C445        N446   1.376       .  A
C445        N450   1.368       .  A
C445       C1022   1.487       .  S
N446        C447   1.376       .  A
C447        N448   1.371       .  A
C447        C951   1.492   1_545  S
N448        C449   1.371       .  A
C449        N450   1.368       .  A
C449        C583   1.510       .  S
C451        N452   1.355       .  A
C451        N456   1.345       .  A
C451        C998   1.427   1_655  S
N452        C453   1.360       .  A
C453        N454   1.371       .  A
C453        C949   1.449       .  S
N454        C455   1.368       .  A
C455        N456   1.350       .  A
C455        C472   1.473       .  S
C457        N458   1.352       .  A
C457        N462   1.344       .  A
C457        C947   1.420       .  S
N458        C459   1.358   1_655  A
C459        N460   1.364       .  A
C459        C996   1.429       .  S
N460        C461   1.360   1_455  A
C461        N462   1.350       .  A
C461        C552   1.459       .  S
N463        N464   1.328       .  A
N463        N469   1.315       .  A
N463       Mn492   2.238       .  S
N464        C471   1.360       .  A
N465        N467   1.313       .  A
N465        N466   1.316       .  A
N465       Mn481   2.197   1_655  S
N466        C472   1.353       .  A
N467        N468   1.327       .  A
N467       Mn492   2.206       .  S
N468        C472   1.354       .  A
N469        N470   1.329   1_655  A
N469       Mn481   2.243   1_655  S
N470        C471   1.360   1_455  A
N473        N479   1.318       .  A
N473        N474   1.312       .  A
N473       Mn503   2.185       .  S
N474        C482   1.347       .  A
N475        N476   1.315       .  A
N475        N477   1.318       .  A
N475       Mn481   2.173   1_545  S
N476        C483   1.345       .  A
N477        N478   1.317       .  A
N477       Mn503   2.189       .  S
N478        C483   1.347       .  A
N479        N480   1.326   1_545  A
N479       Mn481   2.216   1_545  S
N480        C482   1.354   1_565  A
Mn481      Cl505   2.553   1_465  S
N484        N485   1.317       .  A
N484        N490   1.318       .  A
N484       Mn492   2.186   1_545  S
N485        C493   1.347       .  A
N486        N488   1.318       .  A
N486        N487   1.327       .  A
N486       Mn504   2.218       .  S
N487        C494   1.355       .  A
N488        N489   1.311       .  A
N488       Mn492   2.181   1_545  S
N489        C494   1.346       .  A
N490        N491   1.314       .  A
N490       Mn504   2.170       .  S
N491        C493   1.345       .  A
Mn492      Cl505   2.543   1_565  S
N495        N496   1.328       .  A
N495        N501   1.313   1_455  A
N495       Mn503   2.207       .  S
N496        C506   1.355   1_455  A
N497        N498   1.329       .  A
N497        N499   1.315   1_655  A
N497       Mn504   2.243       .  S
N498        C507   1.360       .  A
N499        N500   1.329       .  A
N499       Mn503   2.245       .  S
N500        C507   1.361   1_455  A
N501        N502   1.315       .  A
N501       Mn504   2.191       .  S
N502        C506   1.351       .  A
Mn503      Cl505   2.543   1_455  S
Mn504      Cl505   2.553       .  S
N508        N509   1.327       .  A
N508        N514   1.318       .  A
N508       Mn537   2.218       .  S
N509        C516   1.355       .  A
N510        N512   1.318       .  A
N510        N511   1.317   1_655  A
N510       Mn526   2.187   1_655  S
N511        C517   1.347   1_455  A
N512        N513   1.315       .  A
N512       Mn537   2.172       .  S
N513        C517   1.345       .  A
N514        N515   1.311       .  A
N514       Mn526   2.184   1_655  S
N515        C516   1.347       .  A
N518        N524   1.313   1_556  A
N518        N519   1.315       .  A
N518       Mn548   2.195       .  S
N519        C527   1.352   1_556  A
N520        N521   1.329       .  A
N520        N522   1.315   1_554  A
N520       Mn526   2.244       .  S
N521        C528   1.361   1_554  A
N522        N523   1.329       .  A
N522       Mn548   2.242       .  S
N523        C528   1.360       .  A
N524        N525   1.328       .  A
N524       Mn526   2.207       .  S
N525        C527   1.355       .  A
Mn526      Cl550   2.544   1_454  S
N529        N530   1.329       .  A
N529        N535   1.315   1_554  A
N529       Mn537   2.244       .  S
N530        C538   1.360   1_554  A
N531        N533   1.313   1_556  A
N531        N532   1.328       .  A
N531       Mn549   2.208       .  S
N532        C539   1.355       .  A
N533        N534   1.316       .  A
N533       Mn537   2.194       .  S
N534        C539   1.352   1_554  A
N535        N536   1.329       .  A
N535       Mn549   2.244       .  S
N536        C538   1.361       .  A
Mn537      Cl550   2.553   1_554  S
N540        N541   1.314       .  A
N540        N546   1.318   1_455  A
N540       Mn548   2.171       .  S
N541        C551   1.345   1_455  A
N542        N543   1.312       .  A
N542        N544   1.318   1_655  A
N542       Mn549   2.182       .  S
N543        C552   1.346       .  A
N544        N545   1.326       .  A
N544       Mn548   2.216       .  S
N545        C552   1.355   1_455  A
N546        N547   1.318       .  A
N546       Mn549   2.190       .  S
N547        C551   1.348       .  A
Mn548      Cl550   2.553   1_455  S
Mn549      Cl550   2.543       .  S
N553        N554   1.317       .  A
N553        N559   1.318   1_556  A
N553       Mn582   2.191       .  S
N554        C561   1.347       .  A
N555        N557   1.318   1_554  A
N555        N556   1.326       .  A
N555       Mn571   2.217       .  S
N556        C562   1.355       .  A
N557        N558   1.312       .  A
N557       Mn582   2.183       .  S
N558        C562   1.346   1_556  A
N559        N560   1.315       .  A
N559       Mn571   2.172       .  S
N560        C561   1.345   1_554  A
N563        N569   1.313       .  A
N563        N564   1.328   1_545  A
N563       Mn593   2.206   1_545  S
N564        C572   1.354   1_565  A
N565        N566   1.329       .  A
N565        N567   1.315       .  A
N565       Mn571   2.242       .  S
N566        C573   1.360       .  A
N567        N568   1.328       .  A
N567       Mn593   2.240   1_545  S
N568        C573   1.360       .  A
N569        N570   1.315       .  A
N569       Mn571   2.197       .  S
N570        C572   1.353       .  A
Mn571      Cl595   2.553   1_554  S
N574        N575   1.329       .  A
N574        N580   1.315       .  A
N574       Mn582   2.246       .  S
N575        C583   1.361       .  A
N576        N578   1.313       .  A
N576        N577   1.315       .  A
N576       Mn594   2.189       .  S
N577        C584   1.351       .  A
N578        N579   1.328       .  A
N578       Mn582   2.207       .  S
N579        C584   1.355       .  A
N580        N581   1.330       .  A
N580       Mn594   2.246       .  S
N581        C583   1.360       .  A
Mn582      Cl595   2.543       .  S
N585        N586   1.311       .  A
N585        N591   1.318   1_554  A
N585       Mn593   2.182       .  S
N586        C596   1.346   1_554  A
N587        N588   1.314       .  A
N587        N589   1.318   1_556  A
N587       Mn594   2.170   1_565  S
N588        C597   1.345       .  A
N589        N590   1.317       .  A
N589       Mn593   2.185       .  S
N590        C597   1.347   1_554  A
N591        N592   1.327       .  A
N591       Mn594   2.218   1_565  S
N592        C596   1.355       .  A
Mn593      Cl595   2.543   1_564  S
Mn594      Cl595   2.554       .  S
O598        C625   1.263       .  A
O598       Mn624   2.063       .  S
C599        C958   1.399       .  S
C599        O632   1.263       .  A
C599        O629   1.259       .  A
O600       Mn607   2.170       .  S
O600       Mn618   2.141       .  S
O600       Mn622   2.162       .  S
O600       Mn624   2.143       .  S
O601        C611   1.272       .  A
O601       Mn635   2.097       .  S
O602        C625   1.259       .  A
O602       Mn618   2.040       .  S
O603        C630   1.265       .  A
O603       Mn622   2.177       .  S
O604       Mn635   1.967       .  S
O604       Mn624   1.974       .  S
O604        C620   1.225       .  S
C605        C940   1.444       .  S
C605        O608   1.262       .  A
C605        O631   1.218       .  S
O606       Mn626   2.133       .  S
O606       Mn607   2.177       .  S
O606       Mn640   2.133       .  S
O606       Mn622   2.176       .  S
Mn607       O636   2.176       .  S
Mn607       O612   2.133       .  S
Mn607       O639   2.167       .  S
Mn607       O613   2.163       .  S
O608       Mn622   2.131       .  S
O609        C611   1.263       .  A
O609       Mn616   2.061       .  S
C610        C952   1.490       .  S
C610        O636   1.265       .  A
C610        O623   1.219       .  S
C611        C942   1.422       .  S
O612        C637   1.262       .  A
O613       Mn616   2.142       .  S
O613       Mn635   2.142       .  S
O613       Mn622   2.171       .  S
O614       Mn618   1.951       .  S
O614       Mn640   1.944       .  S
O614        C637   1.218       .  S
C615        C945   1.401       .  S
C615        O641   1.259       .  A
C615        O617   1.263       .  A
Mn616       O629   2.041       .  S
Mn616       O631   1.951       .  S
Mn616       O623   1.956       .  S
O617       Mn640   2.061       .  S
Mn618       O634   2.061       .  S
Mn618       O628   1.956       .  S
O619        C621   1.271       .  A
O619       Mn624   2.095       .  S
C620        C935   1.487       .  S
C620        O638   1.268       .  A
C621        C948   1.421       .  S
C621        O634   1.263       .  A
Mn622       O638   2.168       .  S
O623       Mn626   1.943       .  S
Mn624       O642   1.968       .  S
C625        C938   1.399       .  S
Mn626       O633   2.061       .  S
Mn626       O641   2.047       .  S
Mn626       O631   1.944       .  S
C627        C954   1.400       .  S
C627        O633   1.263       .  A
C627        O643   1.259       .  A
O628       Mn640   1.942       .  S
O628        C630   1.219       .  S
C630        C943   1.490       .  S
O632       Mn635   2.063       .  S
Mn635       O642   1.975       .  S
C637        C950   1.446       .  S
O639        C644   1.268       .  A
Mn640       O643   2.046       .  S
O642        C644   1.225       .  S
C644        C956   1.487       .  S
C645        N646   1.366       .  A
C645        N650   1.359       .  A
C645        C992   1.433       .  S
N646        C647   1.361       .  A
C647        N648   1.349       .  A
C647        C862   1.460       .  S
N648        C649   1.343       .  A
C649        N650   1.354       .  A
C649       C1062   1.422       .  S
C651        N652   1.345       .  A
C651        N656   1.355       .  A
C651        C993   1.427       .  S
N652        C653   1.350       .  A
C653        N654   1.366       .  A
C653        C796   1.472       .  S
N654        C655   1.371       .  A
C655        N656   1.360       .  A
C655       C1060   1.446       .  S
C657        N658   1.355       .  A
C657        N662   1.345       .  A
C657       C1035   1.427       .  S
N658        C659   1.360       .  A
C659        N660   1.372       .  A
C659       C1018   1.449       .  S
N660        C661   1.368       .  A
C661        N662   1.350       .  A
C661        C762   1.474       .  S
C663        N664   1.352       .  A
C663        N668   1.344       .  A
C663       C1016   1.420       .  S
N664        C665   1.358       .  A
C665        N666   1.365       .  A
C665       C1037   1.429       .  S
N666        C667   1.360       .  A
C667        N668   1.350       .  A
C667        C874   1.459       .  S
C669        N670   1.344       .  A
C669        N674   1.350       .  A
C669        C968   1.399       .  S
N670        C671   1.345       .  A
C671        N672   1.352       .  A
C671        C946   1.399       .  S
N672        C673   1.351       .  A
C673        N674   1.350       .  A
C673        C873   1.443       .  S
C675        N676   1.371       .  A
C675        N680   1.377       .  A
C675        C944   1.492       .  S
N676        C677   1.371       .  A
C677        N678   1.368       .  A
C677        C797   1.510       .  S
N678        C679   1.367       .  A
C679        N680   1.376       .  A
C679        C969   1.487       .  S
C681        N682   1.346       .  A
C681        N686   1.352       .  A
C681       C1086   1.398       .  S
N682        C683   1.344       .  A
C683        N684   1.348       .  A
C683       C1012   1.398       .  S
N684        C685   1.349       .  A
C685        N686   1.351       .  A
C685        C807   1.441       .  S
C687        N688   1.376       .  A
C687        N692   1.367       .  A
C687       C1014   1.488       .  S
N688        C689   1.377       .  A
C689        N690   1.370       .  A
C689       C1084   1.491       .  S
N690        C691   1.370       .  A
C691        N692   1.368       .  A
C691        C851   1.508       .  S
C693        N694   1.366       .  A
C693        N698   1.376       .  A
C693       C1055   1.486       .  S
N694        C695   1.367       .  A
C695        N696   1.370       .  A
C695        C887   1.508       .  S
N696        C697   1.371       .  A
C697        N698   1.377       .  A
C697        C966   1.492       .  S
C699        N700   1.352       .  A
C699        N704   1.346       .  A
C699        C964   1.399       .  S
N700        C701   1.350       .  A
C701        N702   1.350       .  A
C701        C841   1.443       .  S
N702        C703   1.349       .  A
C703        N704   1.344       .  A
C703       C1057   1.399       .  S
C705        N706   1.365       .  A
C705        N710   1.359       .  A
C705       C1034   1.432       .  S
N706        C707   1.360       .  A
C707        N708   1.349       .  A
C707        C783   1.460       .  S
N708        C709   1.344       .  A
C709        N710   1.353       .  A
C709        C960   1.422       .  S
C711        N712   1.370       .  A
C711        N716   1.360       .  A
C711        C962   1.445       .  S
N712        C713   1.366       .  A
C713        N714   1.351       .  A
C713        C829   1.472       .  S
N714        C715   1.346       .  A
C715        N716   1.355       .  A
C715       C1032   1.428       .  S
C717        N718   1.344       .  A
C717        N722   1.353       .  A
C717        C941   1.421       .  S
N718        C719   1.350       .  A
C719        N720   1.360       .  A
C719        C842   1.459       .  S
N720        C721   1.364       .  A
C721        N722   1.358       .  A
C721        C988   1.430       .  S
C723        N724   1.355       .  A
C723        N728   1.346       .  A
C723        C990   1.428       .  S
N724        C725   1.360       .  A
C725        N726   1.371       .  A
C725        C939   1.447       .  S
N726        C727   1.367       .  A
C727        N728   1.351       .  A
C727        C852   1.473       .  S
C729        N730   1.349       .  A
C729        N734   1.344       .  A
C729        C937   1.398       .  S
N730        C731   1.349       .  A
C731        N732   1.350       .  A
C731        C772   1.441       .  S
N732        C733   1.352       .  A
C733        N734   1.345       .  A
C733       C1008   1.398       .  S
C735        N736   1.368       .  A
C735        N740   1.377       .  A
C735        C936   1.489       .  S
N736        C737   1.368       .  A
C737        N738   1.370       .  A
C737        C828   1.510       .  S
N738        C739   1.371       .  A
C739        N740   1.377       .  A
C739       C1009   1.492       .  S
C741        N742   1.372       .  A
C741        N746   1.360       .  A
C741       C1079   1.448       .  S
N742        C743   1.368       .  A
C743        N744   1.350       .  A
C743        C817   1.473       .  S
N744        C745   1.345       .  A
C745        N746   1.355       .  A
C745        C985   1.427       .  S
C747        N748   1.358       .  A
C747        N752   1.365       .  A
C747        C984   1.430       .  S
N748        C749   1.353       .  A
C749        N750   1.343       .  A
C749       C1082   1.420       .  S
N750        C751   1.349       .  A
C751        N752   1.360       .  A
C751        C773   1.459       .  S
N753        N754   1.329       .  A
N753        N759   1.314       .  A
N753       Mn782   2.242   1_455  S
N754        C761   1.360       .  A
N755        N757   1.313       .  A
N755        N756   1.327       .  A
N755       Mn771   2.207       .  S
N756        C762   1.355       .  A
N757        N758   1.316       .  A
N757       Mn782   2.197       .  S
N758        C762   1.353       .  A
N759        N760   1.328       .  A
N759       Mn771   2.239   1_455  S
N760        C761   1.360       .  A
N763        N769   1.318       .  A
N763        N764   1.314       .  A
N763       Mn793   2.170       .  S
N764        C772   1.345       .  A
N765        N766   1.311       .  A
N765        N767   1.318       .  A
N765       Mn771   2.180   1_455  S
N766        C773   1.346       .  A
N767        N768   1.327       .  A
N767       Mn793   2.218   1_455  S
N768        C773   1.355       .  A
N769        N770   1.317       .  A
N769       Mn771   2.186       .  S
N770        C772   1.347       .  A
Mn771      Cl795   2.543       .  S
N774        N775   1.326       .  A
N774        N780   1.318       .  A
N774       Mn782   2.216       .  S
N775        C783   1.354       .  A
N776        N778   1.318       .  A
N776        N777   1.318       .  A
N776       Mn794   2.190   1_455  S
N777        C784   1.347       .  A
N778        N779   1.315       .  A
N778       Mn782   2.173   1_455  S
N779        C784   1.345       .  A
N780        N781   1.312       .  A
N780       Mn794   2.184       .  S
N781        C783   1.347       .  A
Mn782      Cl795   2.553       .  S
N785        N786   1.315       .  A
N785        N791   1.313       .  A
N785       Mn793   2.191   1_455  S
N786        C796   1.351       .  A
N787        N788   1.329       .  A
N787        N789   1.315       .  A
N787       Mn794   2.246       .  S
N788        C797   1.361       .  A
N789        N790   1.330       .  A
N789       Mn793   2.245       .  S
N790        C797   1.360       .  A
N791        N792   1.327       .  A
N791       Mn794   2.206   1_455  S
N792        C796   1.355       .  A
Mn793      Cl795   2.553       .  S
Mn794      Cl795   2.543       .  S
N798        N799   1.327       .  A
N798        N804   1.318       .  A
N798       Mn827   2.218   1_554  S
N799        C806   1.355       .  A
N800        N802   1.318       .  A
N800        N801   1.317       .  A
N800       Mn816   2.186   1_556  S
N801        C807   1.347       .  A
N802        N803   1.314       .  A
N802       Mn827   2.170       .  S
N803        C807   1.345       .  A
N804        N805   1.311       .  A
N804       Mn816   2.183       .  S
N805        C806   1.347       .  A
N808        N814   1.313       .  A
N808        N809   1.315       .  A
N808       Mn838   2.195       .  S
N809        C817   1.352       .  A
N810        N811   1.328       .  A
N810        N812   1.315       .  A
N810       Mn816   2.241       .  S
N811        C818   1.360       .  A
N812        N813   1.329       .  A
N812       Mn838   2.242   1_554  S
N813        C818   1.360       .  A
N814        N815   1.328       .  A
N814       Mn816   2.207   1_556  S
N815        C817   1.355       .  A
Mn816      Cl840   2.543   1_554  S
N819        N820   1.330       .  A
N819        N825   1.315       .  A
N819       Mn827   2.246       .  S
N820        C828   1.361       .  A
N821        N823   1.313       .  A
N821        N822   1.328       .  A
N821       Mn839   2.208   1_554  S
N822        C829   1.355       .  A
N823        N824   1.315       .  A
N823       Mn827   2.190   1_554  S
N824        C829   1.351       .  A
N825        N826   1.329       .  A
N825       Mn839   2.245       .  S
N826        C828   1.361       .  A
Mn827      Cl840   2.553       .  S
N830        N831   1.314       .  A
N830        N836   1.318       .  A
N830       Mn838   2.170   1_554  S
N831        C841   1.344       .  A
N832        N833   1.312       .  A
N832        N834   1.318       .  A
N832       Mn839   2.183       .  S
N833        C842   1.347       .  A
N834        N835   1.326       .  A
N834       Mn838   2.216       .  S
N835        C842   1.354       .  A
N836        N837   1.318       .  A
N836       Mn839   2.191   1_554  S
N837        C841   1.348       .  A
Mn838      Cl840   2.553       .  S
Mn839      Cl840   2.543       .  S
N843        N844   1.329       .  A
N843        N849   1.315       .  A
N843       Mn872   2.242       .  S
N844        C851   1.361       .  A
N845        N847   1.313       .  A
N845        N846   1.316   1_545  A
N845       Mn861   2.194       .  S
N846        C852   1.352       .  A
N847        N848   1.327   1_545  A
N847       Mn872   2.207       .  S
N848        C852   1.355       .  A
N849        N850   1.329       .  A
N849       Mn861   2.243       .  S
N850        C851   1.360       .  A
N853        N859   1.318       .  A
N853        N854   1.312       .  A
N853       Mn883   2.185   1_565  S
N854        C862   1.347       .  A
N855        N856   1.314       .  A
N855        N857   1.318       .  A
N855       Mn861   2.171       .  S
N856        C863   1.345       .  A
N857        N858   1.317       .  A
N857       Mn883   2.188       .  S
N858        C863   1.347       .  A
N859        N860   1.326       .  A
N859       Mn861   2.215   1_565  S
N860        C862   1.354       .  A
Mn861      Cl885   2.553       .  S
N864        N865   1.317   1_545  A
N864        N870   1.318       .  A
N864       Mn872   2.189       .  S
N865        C873   1.347       .  A
N866        N868   1.318       .  A
N866        N867   1.326       .  A
N866       Mn884   2.216       .  S
N867        C874   1.355       .  A
N868        N869   1.311       .  A
N868       Mn872   2.181       .  S
N869        C874   1.346       .  A
N870        N871   1.315   1_545  A
N870       Mn884   2.172       .  S
N871        C873   1.345       .  A
Mn872      Cl885   2.543       .  S
N875        N876   1.328       .  A
N875        N881   1.313       .  A
N875       Mn883   2.207       .  S
N876        C886   1.355       .  A
N877        N878   1.329       .  A
N877        N879   1.315       .  A
N877       Mn884   2.242   1_565  S
N878        C887   1.359       .  A
N879        N880   1.329       .  A
N879       Mn883   2.244   1_565  S
N880        C887   1.361       .  A
N881        N882   1.315       .  A
N881       Mn884   2.195       .  S
N882        C886   1.352       .  A
Mn883      Cl885   2.544       .  S
Mn884      Cl885   2.553       .  S
O888        C915   1.259       .  A
O888       Mn914   2.041       .  S
C889       C1076   1.401       .  S
C889        O922   1.259       .  A
C889        O919   1.262       .  A
O890       Mn897   2.170       .  S
O890       Mn908   2.142       .  S
O890       Mn912   2.162       .  S
O890       Mn914   2.142       .  S
O891        C901   1.262       .  A
O891       Mn925   2.061       .  S
O892        C915   1.264       .  A
O892       Mn908   2.067       .  S
O893        C920   1.267       .  A
O893       Mn912   2.164       .  S
O894       Mn925   1.942       .  S
O894       Mn914   1.957       .  S
O894        C910   1.220       .  S
C895       C1110   1.445       .  S
C895        O898   1.261       .  A
C895        O921   1.218       .  S
O896       Mn916   2.141       .  S
O896       Mn897   2.161       .  S
O896       Mn930   2.143       .  S
O896       Mn912   2.169       .  S
Mn897       O926   2.173       .  S
Mn897       O902   2.164       .  S
Mn897       O929   2.127       .  S
Mn897       O903   2.177       .  S
O898       Mn912   2.130       .  S
O899        C901   1.259       .  A
O899       Mn906   2.047       .  S
C900       C1072   1.488       .  S
C900        O926   1.264       .  A
C900        O913   1.220       .  S
C901       C1124   1.401       .  S
O902        C927   1.267       .  A
O903       Mn906   2.134       .  S
O903       Mn925   2.134       .  S
O903       Mn912   2.177       .  S
O904       Mn908   1.970       .  S
O904       Mn930   1.976       .  S
O904        C927   1.225       .  S
C905       C1106   1.423       .  S
C905        O931   1.263       .  A
C905        O907   1.272       .  A
Mn906       O919   2.061       .  S
Mn906       O921   1.943       .  S
Mn906       O913   1.942       .  S
O907       Mn930   2.100       .  S
Mn908       O924   2.101       .  S
Mn908       O918   1.976       .  S
O909        C911   1.263       .  A
O909       Mn914   2.059       .  S
C910       C1120   1.487       .  S
C910        O928   1.264       .  A
C911       C1048   1.423       .  S
C911        O924   1.272       .  A
Mn912       O928   2.171       .  S
O913       Mn916   1.956       .  S
Mn914       O932   1.951       .  S
C915       C1116   1.402       .  S
Mn916       O923   2.040       .  S
Mn916       O931   2.059       .  S
Mn916       O921   1.951       .  S
C917       C1096   1.401       .  S
C917        O923   1.259       .  A
C917        O933   1.264       .  A
O918       Mn930   1.969       .  S
O918        C920   1.225       .  S
C920       C1111   1.485       .  S
O922       Mn925   2.046       .  S
Mn925       O932   1.943       .  S
C927       C1100   1.485       .  S
O929        C934   1.261       .  A
Mn930       O933   2.067       .  S
O932        C934   1.218       .  S
C934       C1051   1.443       .  S
C935        C936   1.237       .  T
C937        C938   1.185       .  T
C939        C940   1.213       .  T
C941        C942   1.198       .  T
C943        C944   1.239       .  T
C945        C946   1.186       .  T
C947        C948   1.197       .  T
C949        C950   1.213       .  T
C951        C952   1.239       .  T
C953        C954   1.185       .  T
C955        C956   1.237       .  T
C957        C958   1.185       .  T
C959        C960   1.199       .  T
C961        C962   1.211       .  T
C963        C964   1.185       .  T
C965        C966   1.239       .  T
C967        C968   1.186       .  T
C969        C970   1.237       .  T
C971        C972   1.185       .  T
C973        C974   1.239       .  T
C975        C976   1.214       .  T
C977        C978   1.197       .  T
C979        C980   1.236       .  T
C981        C982   1.186       .  T
C983        C984   1.202       .  T
C985        C986   1.201       .  T
C987        C988   1.202       .  T
C989        C990   1.202       .  T
C991        C992   1.204       .  T
C993        C994   1.202       .  T
C995        C996   1.202       .  T
C997        C998   1.202       .  T
C999       C1000   1.202       .  T
C1001      C1002   1.203       .  T
C1003      C1004   1.203       .  T
C1005      C1006   1.202       .  T
C1007      C1008   1.185       .  T
C1009      C1010   1.239       .  T
C1011      C1012   1.185       .  T
C1013      C1014   1.237       .  T
C1015      C1016   1.197       .  T
C1017      C1018   1.214       .  T
C1019      C1020   1.185       .  T
C1021      C1022   1.237       .  T
C1023      C1024   1.185       .  T
C1025      C1026   1.239       .  T
C1027      C1028   1.213       .  T
C1029      C1030   1.198       .  T
C1031      C1032   1.202       .  T
C1033      C1034   1.203       .  T
C1035      C1036   1.202       .  T
C1037      C1038   1.202       .  T
C1039      C1040   1.201       .  T
C1041      C1042   1.202       .  T
C1043      C1044   1.202       .  T
C1045      C1046   1.202       .  T
C1047      C1048   1.199       .  T
C1049      C1050   1.204       .  T
C1051      C1052   1.212       .  T
C1053      C1054   1.202       .  T
C1055      C1056   1.236       .  T
C1057      C1058   1.186       .  T
C1059      C1060   1.212       .  T
C1061      C1062   1.199       .  T
C1063      C1064   1.237       .  T
C1065      C1066   1.186       .  T
C1067      C1068   1.213       .  T
C1069      C1070   1.198       .  T
C1071      C1072   1.238       .  T
C1073      C1074   1.236       .  T
C1075      C1076   1.186       .  T
C1077      C1078   1.186       .  T
C1079      C1080   1.213       .  T
C1081      C1082   1.198       .  T
C1083      C1084   1.238       .  T
C1085      C1086   1.185       .  T
C1087      C1088   1.212       .  T
C1089      C1090   1.199       .  T
C1091      C1092   1.236       .  T
C1093      C1094   1.186       .  T
C1095      C1096   1.186       .  T
C1097      C1098   1.185       .  T
C1099      C1100   1.236       .  T
C1101      C1102   1.239       .  T
C1103      C1104   1.204       .  T
C1105      C1106   1.198       .  T
C1107      C1108   1.202       .  T
C1109      C1110   1.213       .  T
C1111      C1112   1.236       .  T
C1113      C1114   1.238       .  T
C1115      C1116   1.186       .  T
C1117      C1118   1.186       .  T
C1119      C1120   1.237       .  T
C1121      C1122   1.236       .  T
C1123      C1124   1.186       .  T
C1125      C1126   1.186       .  T
