geometry optimzed in LAMMPS
_audit_creation_date              2020-12-01 
_audit_creation_method            'lammps2cif' 
_symmetry_space_group_name_H-M    'P1' 
_symmetry_Int_Tables_number       1 
_symmetry_cell_setting            triclinic 
loop_ 
_symmetry_equiv_pos_as_xyz 
  x,y,z 
_cell_length_a                    32.0944428 
_cell_length_b                    32.09608491845015 
_cell_length_c                    32.09312379321448 
_cell_angle_alpha                 90.04030863881512 
_cell_angle_beta                  89.98226710201995 
_cell_angle_gamma                 89.96658462951181 
loop_ 
_atom_site_label 
_atom_site_type_symbol 
_atom_site_fract_x 
_atom_site_fract_y 
_atom_site_fract_z 
_atom_site_charge 
C1          C  0.72579571  0.32956868  0.27655671     0.81900
N2          N  0.69153606  0.31077596  0.25972444    -0.76400
C3          C  0.67545955  0.27551639  0.27726968     0.84400
N4          N  0.69395941  0.25910753  0.31178916    -0.76300
C5          C  0.72815894  0.27759494  0.32884794     0.84500
N6          N  0.74394801  0.31276386  0.31107749    -0.78100
C7          C  0.72631999  0.79438312  0.27606102     0.81900
N8          N  0.74090336  0.81328341  0.31118663    -0.76400
C9          C  0.72145684  0.84763845  0.32690654     0.84400
N10         N  0.68716184  0.86312569  0.30717192    -0.76300
C11         C  0.67227949  0.84446537  0.27200531     0.84500
N12         N  0.69201515  0.81013040  0.25658477    -0.78100
C13         C  0.20802371  0.84140819  0.26795567     0.81900
N14         N  0.18972939  0.85802901  0.30252299    -0.76400
C15         C  0.15555739  0.83961545  0.31976234     0.84400
N16         N  0.13971543  0.80435644  0.30213077    -0.76300
C17         C  0.15782047  0.78751922  0.26756227     0.84500
N18         N  0.19192229  0.80619588  0.25061090    -0.78100
C19         C  0.20231356  0.84563278  0.84083001     0.81900
N20         N  0.18558595  0.81065661  0.85835818    -0.76400
C21         C  0.15205223  0.79143605  0.84055149     0.84400
N22         N  0.13531785  0.80749134  0.80496074    -0.76300
C23         C  0.15172551  0.84237951  0.78715849     0.84500
N24         N  0.18520621  0.86129307  0.80522607    -0.78100
C25         C  0.73688849  0.27312331  0.79815818     0.81900
N26         N  0.70230842  0.25430414  0.81421590    -0.76400
C27         C  0.68302634  0.27026288  0.84860516     0.84400
N28         N  0.69851238  0.30530790  0.86685212    -0.76300
C29         C  0.73299010  0.32440453  0.85114957     0.84500
N30         N  0.75206726  0.30821538  0.81675890    -0.78100
C31         C  0.72637230  0.84652280  0.79157510     0.81900
N32         N  0.69056688  0.86293441  0.80756202    -0.76400
C33         C  0.67265761  0.84613778  0.84223037     0.84400
N34         N  0.69088110  0.81261860  0.86096360    -0.76300
C35         C  0.72669811  0.79588209  0.84528890     0.84500
N36         N  0.74429254  0.81299133  0.81058284    -0.78100
C37         C  0.20966364  0.27174721  0.84416761     0.81900
N38         N  0.19379151  0.25300002  0.80941832    -0.76400
C39         C  0.15887550  0.26835579  0.79056754     0.84400
N40         N  0.13983688  0.30276213  0.80679344    -0.76300
C41         C  0.15534861  0.32179423  0.84150550     0.84500
N42         N  0.19026568  0.30612531  0.86002025    -0.78100
C43         C  0.21175287  0.27069107  0.26978434     0.81900
N44         N  0.19318817  0.30434722  0.25173321    -0.76400
C45         C  0.15726863  0.32035790  0.26782711     0.84400
N46         N  0.13993803  0.30243781  0.30222144    -0.76300
C47         C  0.15827635  0.26876280  0.32049815     0.84500
N48         N  0.19416329  0.25303936  0.30413306    -0.78100
O49         O  0.00771380  0.11640681  0.55560718    -0.53700
O50         O  0.85478502  0.20378615  0.51041987    -0.61600
C51         C  0.82035762  0.18921141  0.49720232     0.99200
O52         O  0.13270473  0.01504810  0.55168380    -0.66800
O53         O  0.06105513  0.05258171  0.59873168    -0.64800
C54         C  0.73260778  0.06632800  0.56304864     0.91300
O55         O  0.91656311  0.25217925  0.55683332    -0.66900
C56         C  0.82425338  0.18932392  0.62435254     0.98800
C57         C  0.95290986  0.26782002  0.55559239     0.91800
Ti58       Ti  0.89923030  0.18808422  0.55816235     1.51200
Ti59       Ti  0.98625551  0.92885463  0.55164996     1.51300
O60         O  0.94850303  0.17490422  0.60218287    -0.60800
O61         O  0.82413349  0.06384176  0.51516280    -0.64800
C62         C  0.06397383  0.92638733  0.61424163     0.99200
O63         O  0.87902332  0.99925470  0.55760424    -0.53800
C64         C  0.80997355  0.93953412  0.49514344     0.99000
Ti65       Ti  0.81678312  0.11260572  0.56100085     1.51000
Ti66       Ti  0.99666207  0.18230708  0.55578441     1.53000
Ti67       Ti  0.07320269  0.10128493  0.55413361     1.49300
O68         O  0.80035249  0.97121218  0.60931546    -0.60500
O69         O  0.75090250  0.03137443  0.56309966    -0.66900
O70         O  0.98603244  0.24649812  0.55552428    -0.67000
O71         O  0.88288872  0.12313337  0.55900771    -0.53700
O72         O  0.05981931  0.05395627  0.50819263    -0.64700
O73         O  0.02838347  0.91423309  0.50141412    -0.61600
O74         O  0.94627455  0.17430024  0.51185700    -0.60800
O75         O  0.84612387  0.91889348  0.60440316    -0.62100
O76         O  0.96927762  0.86539741  0.54926123    -0.66900
O77         O  0.85717034  0.20452653  0.60813706    -0.61600
O78         O  0.00212459  0.99396695  0.55346479    -0.53700
C79         C  0.93364379  0.84829517  0.54899447     0.91800
O80         O  0.82750238  0.06319228  0.60552185    -0.64700
O81         O  0.04202859  0.19482305  0.60371006    -0.62200
O82         O  0.03067566  0.91117768  0.59894230    -0.61600
C83         C  0.07452367  0.17751407  0.61843949     0.99100
C84         C  0.81502190  0.93649165  0.62164971     0.99000
C85         C  0.15356356  0.04851749  0.55162491     0.91100
O86         O  0.08084016  0.95945589  0.60051653    -0.60900
O87         O  0.80291040  0.15730168  0.51296937    -0.60900
C88         C  0.06251883  0.92880509  0.48753002     0.98800
Ti89       Ti  0.06824528  0.00428039  0.55257227     1.51000
O90         O  0.84345898  0.92230369  0.50719234    -0.62200
O91         O  0.80637926  0.15676692  0.61042633    -0.60900
O92         O  0.08848816  0.14515039  0.50575143    -0.60500
O93         O  0.89962858  0.86817607  0.55139056    -0.67100
O94         O  0.03954697  0.19460926  0.50584698    -0.62100
O95         O  0.13734956  0.08462480  0.55264867    -0.66700
O96         O  0.79551376  0.97245072  0.51185810    -0.60400
Ti97       Ti  0.88909422  0.93301554  0.55473618     1.53200
O98         O  0.08960637  0.14393424  0.60355280    -0.60500
O99         O  0.93683040  0.94301828  0.50829859    -0.60800
O100        O  0.08026666  0.96053058  0.50322338    -0.60900
C101        C  0.07233742  0.17815319  0.49094301     0.99100
O102        O  0.75145266  0.10112085  0.56272023    -0.66900
Ti103      Ti  0.81401613  0.01513203  0.56041248     1.49500
O104        O  0.93943938  0.93966182  0.59868582    -0.60900
O105        O  0.44187477  0.99542467  0.11582499    -0.53700
O106        O  0.49341000  0.14589119  0.20391924    -0.61600
C107        C  0.51030786  0.17795126  0.18772904     0.99200
O108        O  0.43257893  0.86890916  0.01555427    -0.66800
O109        O  0.39276802  0.94425849  0.05343985    -0.64800
C110        C  0.45507750  0.26670437  0.06347872     0.91300
O111        O  0.44195762  0.08669162  0.25149671    -0.66900
C112        C  0.38415362  0.18244644  0.18607645     0.98800
C113        C  0.44071283  0.05044296  0.26745287     0.91800
Ti114      Ti  0.44404094  0.10325110  0.18710436     1.51200
Ti115      Ti  0.43888095  0.01337885  0.92644221     1.51300
O116        O  0.39779002  0.05643422  0.17364884    -0.60800
O117        O  0.49235156  0.17122029  0.05990468    -0.64800
C118        C  0.37199673  0.93909328  0.92729996     0.99200
O119        O  0.44321062  0.12085898  0.99599328    -0.53800
C120        C  0.51005853  0.18378256  0.93431198     0.99000
Ti121      Ti  0.44852150  0.18330881  0.10972674     1.51000
Ti122      Ti  0.44164007  0.00629761  0.18196922     1.53000
Ti123      Ti  0.43862058  0.93004657  0.10069404     1.49300
O124        O  0.39819378  0.20395131  0.96899038    -0.60500
O125        O  0.45182628  0.24911251  0.02825519    -0.66900
O126        O  0.44119927  0.01715576  0.24630832    -0.67000
O127        O  0.44516953  0.11779709  0.12167284    -0.53700
O128        O  0.48308577  0.93997335  0.05129199    -0.64700
O129        O  0.48610683  0.96826306  0.91095629    -0.61600
O130        O  0.48831888  0.05403644  0.17487272    -0.60800
O131        O  0.39604264  0.15671097  0.91767346    -0.62100
O132        O  0.43992860  0.02946630  0.86274424    -0.66900
O133        O  0.39628522  0.14794797  0.20134188    -0.61600
O134        O  0.43884518  0.99882797  0.99180803    -0.53700
C135        C  0.44261979  0.06476312  0.84513266     0.91800
O136        O  0.40224386  0.17652194  0.06114795    -0.64700
O137        O  0.39162578  0.96390585  0.19472162    -0.62200
O138        O  0.38821879  0.97153241  0.91112596    -0.61600
C139        C  0.37616848  0.93160082  0.17802914     0.99100
C140        C  0.38243792  0.18944678  0.93545712     0.99000
C141        C  0.43131954  0.84912758  0.04965082     0.91100
O142        O  0.38607169  0.92231549  0.96031466    -0.60900
O143        O  0.49797734  0.19381054  0.15360225    -0.60900
C144        C  0.49938449  0.93415665  0.92613643     0.98800
Ti145      Ti  0.43628125  0.93308870  0.00343072     1.51000
O146        O  0.49358221  0.15231288  0.91687451    -0.62200
O147        O  0.40089760  0.19914557  0.15425410    -0.60900
O148        O  0.48781242  0.91289107  0.14331490    -0.60500
O149        O  0.44317570  0.09915693  0.86462305    -0.67100
O150        O  0.48898669  0.96060965  0.19420604    -0.62100
O151        O  0.43461004  0.86609755  0.08516942    -0.66700
O152        O  0.49635502  0.19918245  0.96816697    -0.60400
Ti153      Ti  0.44295600  0.11042256  0.92965901     1.53200
O154        O  0.39025379  0.91589667  0.14459202    -0.60500
O155        O  0.48610007  0.05967891  0.93824549    -0.60800
O156        O  0.48369828  0.91753406  0.95850413    -0.60900
C157        C  0.50301670  0.92785810  0.17682338     0.99100
O158        O  0.45316150  0.24772473  0.09796316    -0.66900
Ti159      Ti  0.44716527  0.18582349  0.01193254     1.49500
O160        O  0.39561245  0.06345312  0.93823213    -0.60900
O161        O  0.87884511  0.56150392  0.99970452    -0.53700
O162        O  0.79972811  0.51586181  0.15704258    -0.61600
C163        C  0.81649676  0.49985667  0.18932079     0.99200
O164        O  0.96987305  0.55576502  0.86540618    -0.66800
O165        O  0.93965292  0.60400038  0.94025767    -0.64800
C166        C  0.95021531  0.55953172  0.26857872     0.91300
O167        O  0.75019973  0.56954722  0.10067246    -0.66900
C168        C  0.82169985  0.62630026  0.19039614     0.98800
C169        C  0.73181638  0.57278037  0.06582019     0.91800
Ti170      Ti  0.81496922  0.56419571  0.11283254     1.51200
Ti171      Ti  0.06811361  0.55447326  0.00448947     1.51300
O172        O  0.82749683  0.60911604  0.06413960    -0.60800
O173        O  0.94289336  0.51311292  0.17559887    -0.64800
C174        C  0.06555679  0.61872763  0.92804078     0.99200
O175        O  0.00494868  0.55629121  0.11649622    -0.53800
C176        C  0.06742828  0.48934336  0.17822600     0.99000
Ti177      Ti  0.89629201  0.55997024  0.18902899     1.51000
Ti178      Ti  0.81352687  0.56493938  0.01528698     1.53000
Ti179      Ti  0.88945031  0.55975733  0.93324633     1.49300
O180        O  0.03927106  0.60403826  0.19429174    -0.60500
O181        O  0.98316498  0.55786249  0.24701352    -0.66900
O182        O  0.75008392  0.56988478  0.03091707    -0.67000
O183        O  0.88059594  0.56006359  0.12406018    -0.53700
O184        O  0.93741957  0.51360309  0.94263497    -0.64700
O185        O  0.07927105  0.50581069  0.95994963    -0.61600
O186        O  0.82191366  0.51889666  0.06356039    -0.60800
O187        O  0.08902233  0.59961578  0.14569848    -0.62100
O188        O  0.13251339  0.54949207  0.01633919    -0.66900
O189        O  0.80449062  0.61292584  0.15737667    -0.61600
O190        O  0.00229325  0.55837643  0.99379643    -0.53700
C191        C  0.15192134  0.54467650  0.05041130     0.91800
O192        O  0.94587444  0.60343388  0.17513053    -0.64700
O193        O  0.80105892  0.61465437  0.97204306    -0.62200
O194        O  0.08261090  0.60338037  0.96051510    -0.61600
C195        C  0.81555772  0.62697208  0.93729174     0.99100
C196        C  0.07321972  0.61627465  0.17806112     0.99000
C197        C  0.93430956  0.55465611  0.84822486     0.91100
O198        O  0.03167486  0.60467937  0.91269362    -0.60900
O199        O  0.85085556  0.51277941  0.20461061    -0.60900
C200        C  0.06171449  0.49140537  0.92760778     0.98800
Ti201      Ti  0.98669184  0.55722348  0.92884783     1.51000
O202        O  0.08271583  0.50227450  0.14411468    -0.62200
O203        O  0.85462037  0.61018256  0.20555868    -0.60900
O204        O  0.84443443  0.51173047  0.92288018    -0.60500
O205        O  0.13471724  0.54666863  0.08600114    -0.67100
O206        O  0.79529100  0.51666461  0.97200472    -0.62100
O207        O  0.90018514  0.55668387  0.86810068    -0.66700
O208        O  0.03627224  0.50647447  0.19573563    -0.60400
Ti209      Ti  0.07064277  0.55238684  0.10159859     1.53200
O210        O  0.84622688  0.60934522  0.91932545    -0.60500
O211        O  0.05623680  0.50889839  0.05251626    -0.60800
O212        O  0.02829677  0.50677735  0.91291740    -0.60900
C213        C  0.81092887  0.49937952  0.93985517     0.99100
O214        O  0.91373348  0.55997512  0.25315605    -0.66900
Ti215      Ti  0.99366159  0.55668260  0.18269577     1.49500
O216        O  0.06196187  0.59924141  0.05414549    -0.60900
N217        N  0.04731034  0.51300648  0.50857037    -0.34900
N218        N  0.02164655  0.50857556  0.59604345    -0.55500
N219        N  0.99913986  0.59520739  0.59735475    -0.34900
N220        N  0.02264644  0.60022016  0.51076911    -0.55500
C221        C  0.04091805  0.47171625  0.51354315     0.28700
C222        C  0.04142150  0.52120451  0.46768597     0.28700
C223        C  0.98006657  0.58165174  0.63220928     0.28700
C224        C  0.97976422  0.63066480  0.58595680     0.28700
C225        C  0.03766125  0.47022659  0.59072964     0.37300
C226        C  0.01397640  0.51262647  0.63711096     0.37300
C227        C  0.03924775  0.59807186  0.47237797     0.37300
C228        C  0.01477309  0.64073934  0.51797483     0.37300
C229        C  0.03347900  0.45319305  0.47515856    -0.20200
C230        C  0.03378075  0.48445274  0.44620037    -0.20200
C231        C  0.94902940  0.60945983  0.64385480    -0.20200
C232        C  0.94879358  0.64046313  0.61452189    -0.20200
C233        C  0.04043540  0.44975602  0.62869962    -0.21300
C234        C  0.02555360  0.47682022  0.65825271    -0.21300
C235        C  0.04240537  0.63754051  0.45510750    -0.21300
C236        C  0.02697933  0.66474981  0.48420800    -0.21300
C237        C  0.03950925  0.45050746  0.55186349    -0.16600
C238        C  0.04044840  0.56106553  0.44948753    -0.16600
C239        C  0.98993785  0.65478492  0.55098641    -0.16600
C240        C  0.99051931  0.54531027  0.65412917    -0.16600
H241        H  0.02716375  0.42068388  0.46877399     0.16300
H242        H  0.02775584  0.48065063  0.41323191     0.16300
H243        H  0.92837641  0.60744184  0.67044312     0.16300
H244        H  0.92799834  0.66702348  0.61416399     0.16300
H245        H  0.04966900  0.41774673  0.63399902     0.14600
H246        H  0.02133837  0.47002406  0.69101641     0.14600
H247        H  0.05194447  0.64537534  0.42371576     0.14600
H248        H  0.02264458  0.69792255  0.47993113     0.14600
H249        H  0.05422055  0.53446061  0.53192722     0.27800
H250        H  0.02493719  0.58180389  0.58298629     0.27800
N251        N  0.49457624  0.95889403  0.50712012    -0.34900
N252        N  0.40387205  0.96279934  0.51253689    -0.55500
N253        N  0.40626524  0.97861424  0.60100712    -0.34900
N254        N  0.49618474  0.97685625  0.59596993    -0.55500
C255        C  0.48437551  0.96671690  0.46704383     0.28700
C256        C  0.53422365  0.97207778  0.51223058     0.28700
C257        C  0.36669975  0.98950617  0.59197479     0.28700
C258        C  0.41667581  0.99908884  0.63622980     0.28700
C259        C  0.40850049  0.95284742  0.47207199     0.37300
C260        C  0.36285683  0.95983162  0.52080552     0.37300
C261        C  0.53681941  0.96916519  0.58932262     0.37300
C262        C  0.49166737  0.98123212  0.63742044     0.37300
C263        C  0.51871706  0.98245881  0.44595706    -0.20200
C264        C  0.55020843  0.98578852  0.47449263    -0.20200
C265        C  0.35125979  0.01584637  0.62266450    -0.20200
C266        C  0.38288617  0.02197702  0.65058285    -0.20200
C267        C  0.37030608  0.94304371  0.45449016    -0.21300
C268        C  0.34128030  0.94718264  0.48556666    -0.21300
C269        C  0.55823748  0.96802506  0.62687225    -0.21300
C270        C  0.52948863  0.97579013  0.65748591    -0.21300
C271        C  0.44453752  0.96197570  0.44930773    -0.16600
C272        C  0.55569870  0.97423160  0.55035501    -0.16600
C273        C  0.45568775  0.99742685  0.65594205    -0.16600
C274        C  0.34432540  0.97677546  0.55656454    -0.16600
H275        H  0.52063955  0.99173135  0.41359584     0.16300
H276        H  0.58096019  0.99820505  0.46838583     0.16300
H277        H  0.32064041  0.02987747  0.62445544     0.16300
H278        H  0.38124231  0.04152497  0.67802570     0.16300
H279        H  0.36386893  0.93620352  0.42208893     0.14600
H280        H  0.30788301  0.94417777  0.48193707     0.14600
H281        H  0.59153746  0.96497553  0.63132612     0.14600
H282        H  0.53602415  0.97949331  0.69037015     0.14600
H283        H  0.47533566  0.94629597  0.52992927     0.27800
H284        H  0.42477930  0.95782155  0.58445766     0.27800
N285        N  0.50289979  0.52176754  0.98500812    -0.34900
N286        N  0.41484002  0.49949268  0.98968367    -0.55500
N287        N  0.39041728  0.58585785  0.98786652    -0.34900
N288        N  0.47796894  0.60840754  0.98601537    -0.55500
C289        C  0.50531000  0.48165317  0.99731940     0.28700
C290        C  0.53888109  0.54009773  0.99683042     0.28700
C291        C  0.35509428  0.56793522  0.00201093     0.28700
C292        C  0.38863171  0.62636199  0.99898434     0.28700
C293        C  0.43163282  0.46143234  0.98481598     0.37300
C294        C  0.37325181  0.49438017  0.98750149     0.37300
C295        C  0.51941368  0.61335282  0.98203345     0.37300
C296        C  0.46109291  0.64642440  0.98102759     0.37300
C297        C  0.54392724  0.47381959  0.01504214    -0.20200
C298        C  0.56515222  0.51070419  0.01473437    -0.20200
C299        C  0.33009452  0.59773272  0.02105550    -0.20200
C300        C  0.35129418  0.63463518  0.01911097    -0.20200
C301        C  0.40050481  0.43192351  0.97913722    -0.21300
C302        C  0.36335188  0.45291951  0.98090551    -0.21300
C303        C  0.52912692  0.65462365  0.97416160    -0.21300
C304        C  0.49200581  0.67567036  0.97325296    -0.21300
C305        C  0.47328620  0.45212522  0.99413974    -0.16600
C306        C  0.54836700  0.58273021  0.99293638    -0.16600
C307        C  0.41977963  0.65606673  0.99155484    -0.16600
C308        C  0.34460746  0.52558621  0.99783733    -0.16600
H309        H  0.55535062  0.44475965  0.02778061     0.16300
H310        H  0.59613403  0.51529998  0.02715712     0.16300
H311        H  0.29992103  0.59344770  0.03543759     0.16300
H312        H  0.34061373  0.66408375  0.03164116     0.16300
H313        H  0.40418419  0.39850364  0.97637738     0.14600
H314        H  0.33263066  0.43908029  0.97955739     0.14600
H315        H  0.55982218  0.66832424  0.97143653     0.14600
H316        H  0.48836339  0.70902452  0.96982958     0.14600
H317        H  0.47815506  0.53561902  0.96971890     0.27800
H318        H  0.41384034  0.57170051  0.97081657     0.27800
C319        C  0.30345708  0.51369153  0.01057264    -0.16800
C320        C  0.26880962  0.51307340  0.02426081     0.07200
C321        C  0.22914516  0.52257414  0.03932554     0.09100
C322        C  0.19468343  0.53394982  0.04777032    -0.17700
C323        C  0.58721824  0.59625656  0.01026167    -0.16800
C324        C  0.61848164  0.59909295  0.03025896     0.07200
C325        C  0.65499084  0.59216874  0.05267348     0.09100
C326        C  0.68883186  0.58235111  0.06456808    -0.17700
C327        C  0.95632691  0.56160025  0.31215462    -0.16800
C328        C  0.97425364  0.56354764  0.34470750     0.07200
C329        C  0.00217674  0.56466368  0.37800504     0.09100
C330        C  0.02433530  0.56386668  0.40794213    -0.17700
C331        C  0.93343708  0.54968654  0.80442254    -0.16800
C332        C  0.94050526  0.54427344  0.76830144     0.07200
C333        C  0.95619033  0.53978702  0.72807686     0.09100
C334        C  0.97230595  0.53990851  0.69451756    -0.17700
C335        C  0.46337033  0.30972629  0.06338666    -0.16800
C336        C  0.47252684  0.34415227  0.05330593     0.07200
C337        C  0.48023579  0.38100020  0.03224666     0.09100
C338        C  0.48058185  0.41226101  0.01233070    -0.17700
C339        C  0.42430974  0.80585782  0.04712571    -0.16800
C340        C  0.41694381  0.77081529  0.03743665     0.07200
C341        C  0.41118838  0.73163770  0.02007056     0.09100
C342        C  0.41189269  0.69782846  0.00474916    -0.17700
C343        C  0.43834613  0.97973262  0.40874757    -0.16800
C344        C  0.43575796  0.00168863  0.37872602     0.07200
C345        C  0.43615682  0.02841660  0.34439574     0.09100
C346        C  0.43820589  0.04512538  0.31117635    -0.17700
C347        C  0.45982806  0.01881094  0.69488747    -0.16800
C348        C  0.45875048  0.03789296  0.72681974     0.07200
C349        C  0.45289607  0.05639506  0.76560408     0.09100
C350        C  0.44698321  0.06490416  0.80130441    -0.17700
C351        C  0.59449607  0.99627578  0.55076339    -0.16800
C352        C  0.62242362  0.02073661  0.55355368     0.07200
C353        C  0.65521535  0.04878247  0.55835332     0.09100
C354        C  0.68864705  0.06464194  0.56187910    -0.17700
C355        C  0.19734974  0.04403256  0.55044156    -0.16800
C356        C  0.23201777  0.03059365  0.55003660     0.07200
C357        C  0.26957829  0.00887691  0.55089249     0.09100
C358        C  0.30224706  0.99117704  0.55302918    -0.17700
C359        C  0.96970338  0.69418162  0.54653063    -0.16800
C360        C  0.95300132  0.72726684  0.54411979     0.07200
C361        C  0.93811705  0.76787398  0.54392172     0.09100
C362        C  0.93229325  0.80447291  0.54580024    -0.17700
C363        C  0.95859715  0.31140488  0.55390878    -0.16800
C364        C  0.97605718  0.34418214  0.55231304     0.07200
C365        C  0.00325333  0.37799389  0.55122817     0.09100
C366        C  0.02454128  0.40851294  0.55115672    -0.17700
C367        C  0.13980752  0.24970991  0.35731674    -0.16800
C368        C  0.12477566  0.23347365  0.38815370     0.07200
C369        C  0.10718792  0.21421923  0.42437333     0.09100
C370        C  0.09184614  0.19779685  0.45496779    -0.17700
C371        C  0.13767527  0.35648544  0.24854502    -0.16800
C372        C  0.12141330  0.38684283  0.23258127     0.07200
C373        C  0.10241679  0.42266727  0.21393606     0.09100
C374        C  0.08638862  0.45313691  0.19794996    -0.17700
C375        C  0.34885949  0.20335483  0.20537545    -0.16800
C376        C  0.31829725  0.21987195  0.22062234     0.07200
C377        C  0.28160057  0.23838464  0.23791301     0.09100
C378        C  0.24994562  0.25346940  0.25240092    -0.17700
C379        C  0.09476501  0.19674874  0.65448077    -0.16800
C380        C  0.11027292  0.21284723  0.68531911     0.07200
C381        C  0.12765998  0.23190567  0.72199138     0.09100
C382        C  0.14204698  0.24829523  0.75321910    -0.17700
C383        C  0.08076327  0.45554516  0.90692559    -0.16800
C384        C  0.09748247  0.42523781  0.89105733     0.07200
C385        C  0.11756944  0.38931073  0.87334033     0.09100
C386        C  0.13474531  0.35863349  0.85872036    -0.17700
C387        C  0.34650234  0.21039586  0.91677477    -0.16800
C388        C  0.31553755  0.22545731  0.90048800     0.07200
C389        C  0.27864895  0.24179333  0.88091167     0.09100
C390        C  0.24723682  0.25533640  0.86415776    -0.17700
C391        C  0.74540371  0.86486124  0.75453798    -0.16800
C392        C  0.76116360  0.88062143  0.72373638     0.07200
C393        C  0.77969498  0.89962076  0.68772819     0.09100
C394        C  0.79558463  0.91616094  0.65740374    -0.17700
C395        C  0.74590964  0.75980624  0.86534248    -0.16800
C396        C  0.76184003  0.72947256  0.88186155     0.07200
C397        C  0.78048964  0.69360092  0.90106424     0.09100
C398        C  0.79635868  0.66311776  0.91737073    -0.17700
C399        C  0.53486169  0.91377226  0.90622496    -0.16800
C400        C  0.56565759  0.89763339  0.89079814     0.07200
C401        C  0.60263559  0.87928501  0.87352492     0.09100
C402        C  0.63440588  0.86402987  0.85921743    -0.17700
C403        C  0.75695313  0.25629119  0.76089727    -0.16800
C404        C  0.77306582  0.24211083  0.72947745     0.07200
C405        C  0.79134497  0.22497087  0.69237718     0.09100
C406        C  0.80646365  0.20956346  0.66104300    -0.17700
C407        C  0.74872320  0.36227821  0.87064674    -0.16800
C408        C  0.76123677  0.39412244  0.88710594     0.07200
C409        C  0.77625187  0.43157361  0.90620312     0.09100
C410        C  0.79047084  0.46305578  0.92194586    -0.17700
C411        C  0.54659091  0.20260967  0.91487747    -0.16800
C412        C  0.57764552  0.21761192  0.89891891     0.07200
C413        C  0.61444771  0.23514291  0.88059207     0.09100
C414        C  0.64575850  0.25054741  0.86556681    -0.17700
C415        C  0.13357081  0.85929047  0.74907875    -0.16800
C416        C  0.11805010  0.87339194  0.71740636     0.07200
C417        C  0.09940952  0.89035319  0.68052517     0.09100
C418        C  0.08331636  0.90574160  0.64975915    -0.17700
C419        C  0.08523123  0.65465802  0.90804764    -0.16800
C420        C  0.10091381  0.68557401  0.89230682     0.08000
C421        C  0.11901577  0.72243476  0.87436401     0.09100
C422        C  0.13423656  0.75385626  0.85919626    -0.17700
C423        C  0.23848140  0.86602374  0.85967604    -0.16800
C424        C  0.26889139  0.88329584  0.87474135     0.07200
C425        C  0.30488588  0.90349981  0.89223607     0.09100
C426        C  0.33551888  0.92019558  0.90751177    -0.17700
C427        C  0.08224861  0.90841631  0.45201168    -0.16800
C428        C  0.09913926  0.89202537  0.42216954     0.07200
C429        C  0.11905352  0.87330899  0.38680772     0.09100
C430        C  0.13581156  0.85777766  0.35644600    -0.17700
C431        C  0.14081566  0.74997632  0.24866113    -0.16800
C432        C  0.12674810  0.71869829  0.23246422     0.07200
C433        C  0.10978821  0.68218689  0.21331518     0.09100
C434        C  0.09425537  0.65160914  0.19712019    -0.17700
C435        C  0.24440149  0.86112125  0.24948307    -0.16800
C436        C  0.27479350  0.87717950  0.23350361     0.07200
C437        C  0.31041724  0.89588203  0.21438541     0.09100
C438        C  0.34055426  0.91193647  0.19793127    -0.17700
C439        C  0.78763522  0.92077322  0.46034355    -0.16800
C440        C  0.77066727  0.90439640  0.43057494     0.07200
C441        C  0.75225497  0.88477466  0.39493264     0.09100
C442        C  0.73767505  0.86794950  0.36416402    -0.17700
C443        C  0.74744634  0.75782426  0.25926462    -0.16800
C444        C  0.76512151  0.72741717  0.24489216     0.07200
C445        C  0.78570758  0.69186249  0.22732484     0.09100
C446        C  0.80269957  0.66184114  0.21138952    -0.17700
C447        C  0.63561847  0.86113215  0.25096681    -0.16800
C448        C  0.60496623  0.87507727  0.23339762     0.07200
C449        C  0.56896346  0.89189357  0.21299198     0.09100
C450        C  0.53858239  0.90720181  0.19609726    -0.17700
C451        C  0.74793876  0.25961996  0.36555207    -0.16800
C452        C  0.76442350  0.24426691  0.39610906     0.07200
C453        C  0.78374968  0.22580214  0.43186394     0.09100
C454        C  0.80025810  0.20959259  0.46196595    -0.17700
C455        C  0.79570021  0.46456066  0.20916522    -0.16800
C456        C  0.77872773  0.43426325  0.22468029     0.07200
C457        C  0.75927020  0.39807427  0.24242485     0.09100
C458        C  0.74342297  0.36702397  0.25762664    -0.17700
C459        C  0.54532506  0.19772232  0.20900882    -0.16800
C460        C  0.57465595  0.21548755  0.22544348     0.07200
C461        C  0.60938880  0.23692070  0.24377184     0.09100
C462        C  0.63923732  0.25493267  0.25895634    -0.17700
loop_ 
_geom_bond_atom_site_label_1 
_geom_bond_atom_site_label_2 
_geom_bond_distance 
_geom_bond_site_symmetry_2 
_ccdc_geom_bond_type 
C1            N2   1.366       .  A
C1            N6   1.363       .  A
C1          C458   1.461       .  S
N2            C3   1.366       .  A
C3            N4   1.363       .  A
C3          C462   1.461       .  S
N4            C5   1.363       .  A
C5            N6   1.363       .  A
C5          C451   1.458       .  S
C7            N8   1.363       .  A
C7           N12   1.363       .  A
C7          C443   1.458       .  S
N8            C9   1.363       .  A
C9           N10   1.364       .  A
C9          C442   1.458       .  S
N10          C11   1.364       .  A
C11          N12   1.363       .  A
C11         C447   1.458       .  S
C13          N14   1.363       .  A
C13          N18   1.362       .  A
C13         C435   1.455       .  S
N14          C15   1.363       .  A
C15          N16   1.364       .  A
C15         C430   1.458       .  S
N16          C17   1.363       .  A
C17          N18   1.362       .  A
C17         C431   1.455       .  S
C19          N20   1.366       .  A
C19          N24   1.364       .  A
C19         C423   1.464       .  S
N20          C21   1.366       .  A
C21          N22   1.364       .  A
C21         C422   1.463       .  S
N22          C23   1.363       .  A
C23          N24   1.364       .  A
C23         C415   1.459       .  S
C25          N26   1.365       .  A
C25          N30   1.365       .  A
C25         C403   1.461       .  S
N26          C27   1.364       .  A
C27          N28   1.362       .  A
C27         C414   1.459       .  S
N28          C29   1.362       .  A
C29          N30   1.364       .  A
C29         C407   1.457       .  S
C31          N32   1.364       .  A
C31          N36   1.364       .  A
C31         C391   1.461       .  S
N32          C33   1.364       .  A
C33          N34   1.364       .  A
C33         C402   1.460       .  S
N34          C35   1.364       .  A
C35          N36   1.365       .  A
C35         C395   1.461       .  S
C37          N38   1.366       .  A
C37          N42   1.365       .  A
C37         C390   1.464       .  S
N38          C39   1.366       .  A
C39          N40   1.365       .  A
C39         C382   1.464       .  S
N40          C41   1.364       .  A
C41          N42   1.365       .  A
C41         C386   1.462       .  S
C43          N44   1.363       .  A
C43          N48   1.362       .  A
C43         C378   1.455       .  S
N44          C45   1.363       .  A
C45          N46   1.364       .  A
C45         C371   1.457       .  S
N46          C47   1.363       .  A
C47          N48   1.362       .  A
C47         C367   1.457       .  S
O49         Ti67   2.157       .  S
O49         Ti66   2.144   1_455  S
O50          C51   1.273       .  A
O50         Ti58   2.154       .  S
C51         C454   1.457       .  S
C51          O87   1.273       .  A
O52          C85   1.266       .  A
O52         Ti89   2.098       .  S
O53         Ti89   2.156       .  S
O53         Ti67   2.156       .  S
C54         C354   1.412       .  S
C54          O69   1.266       .  A
C54         O102   1.270       .  A
O55          C57   1.271       .  A
O55         Ti58   2.132       .  S
C56         C406   1.460       .  S
C56          O91   1.273       .  A
C56          O77   1.275       .  A
C57         C363   1.412       .  S
C57          O70   1.264       .  A
Ti58         O71   2.150       .  S
Ti58         O74   2.164       .  S
Ti58         O60   2.163       .  S
Ti58         O77   2.161       .  S
Ti59        O104   2.157       .  S
Ti59         O99   2.159       .  S
Ti59         O78   2.152   1_655  S
Ti59         O76   2.110       .  S
Ti59         O73   2.155   1_655  S
Ti59         O82   2.159   1_655  S
O60         Ti66   2.159       .  S
O61        Ti103   2.159       .  S
O61         Ti65   2.160       .  S
C62         C418   1.458       .  S
C62          O82   1.274       .  A
C62          O86   1.271       .  A
O63         Ti97   2.152       .  S
O63        Ti103   2.149   1_565  S
C64         C439   1.457       .  S
C64          O90   1.269       .  A
C64          O96   1.272       .  A
Ti65         O80   2.163       .  S
Ti65         O71   2.149       .  S
Ti65        O102   2.130       .  S
Ti65         O91   2.152       .  S
Ti65         O87   2.153       .  S
Ti66         O74   2.161       .  S
Ti66         O94   2.149   1_655  S
Ti66         O70   2.088       .  S
Ti66         O81   2.156   1_655  S
Ti67         O72   2.160       .  S
Ti67         O98   2.160       .  S
Ti67         O92   2.153       .  S
Ti67         O95   2.127       .  S
O68          C84   1.273       .  A
O68        Ti103   2.155   1_565  S
O69        Ti103   2.093       .  S
O72         Ti89   2.156       .  S
O73          C88   1.272       .  A
O75          C84   1.273       .  A
O75         Ti97   2.156       .  S
O76          C79   1.269       .  A
O78         Ti89   2.148   1_565  S
C79         C362   1.411       .  S
C79          O93   1.266       .  A
O80        Ti103   2.159       .  S
O81          C83   1.273       .  A
C83         C379   1.463       .  S
C83          O98   1.274       .  A
C84         C394   1.460       .  S
C85         C355   1.413       .  S
C85          O95   1.270       .  A
O86         Ti89   2.146   1_565  S
C88         C427   1.458       .  S
C88         O100   1.271       .  A
Ti89        O100   2.151   1_545  S
O90         Ti97   2.143       .  S
O92         C101   1.272       .  A
O93         Ti97   2.111       .  S
O94         C101   1.270       .  A
O96        Ti103   2.158   1_565  S
Ti97        O104   2.156       .  S
Ti97         O99   2.161       .  S
C101        C370   1.457       .  S
O105       Ti123   2.156       .  S
O105       Ti122   2.151   1_565  S
O106        C107   1.274       .  A
O106       Ti114   2.163       .  S
C107        C459   1.460       .  S
C107        O143   1.271       .  A
O108        C141   1.266       .  A
O108       Ti145   2.100       .  S
O109       Ti145   2.157       .  S
O109       Ti123   2.162       .  S
C110        C335   1.406       .  S
C110        O125   1.268       .  A
C110        O158   1.265       .  A
O111        C113   1.272       .  A
O111       Ti114   2.135       .  S
C112        C375   1.454       .  S
C112        O147   1.273       .  A
C112        O133   1.272       .  A
C113        C346   1.416       .  S
C113        O126   1.265       .  A
Ti114       O127   2.152       .  S
Ti114       O130   2.160       .  S
Ti114       O116   2.156       .  S
Ti114       O133   2.148       .  S
Ti115       O160   2.157       .  S
Ti115       O155   2.157       .  S
Ti115       O134   2.149   1_545  S
Ti115       O132   2.109       .  S
Ti115       O129   2.153   1_545  S
Ti115       O138   2.166   1_545  S
O116       Ti122   2.154       .  S
O117       Ti159   2.167       .  S
O117       Ti121   2.164       .  S
C118        C426   1.464       .  S
C118        O138   1.275       .  A
C118        O142   1.272       .  A
O119       Ti153   2.155       .  S
O119       Ti159   2.150   1_556  S
C120        C411   1.459       .  S
C120        O146   1.270       .  A
C120        O152   1.272       .  A
Ti121       O136   2.165       .  S
Ti121       O127   2.140       .  S
Ti121       O158   2.107       .  S
Ti121       O147   2.153       .  S
Ti121       O143   2.149       .  S
Ti122       O130   2.156       .  S
Ti122       O150   2.148   1_545  S
Ti122       O126   2.094       .  S
Ti122       O137   2.144   1_545  S
Ti123       O128   2.157       .  S
Ti123       O154   2.145       .  S
Ti123       O148   2.161       .  S
Ti123       O151   2.116       .  S
O124        C140   1.277       .  A
O124       Ti159   2.170   1_556  S
O125       Ti159   2.103       .  S
O128       Ti145   2.160       .  S
O129        C144   1.272       .  A
O131        C140   1.272       .  A
O131       Ti153   2.150       .  S
O132        C135   1.269       .  A
O134       Ti145   2.145   1_556  S
C135        C350   1.414       .  S
C135        O149   1.269       .  A
O136       Ti159   2.159       .  S
O137        C139   1.268       .  A
C139        C438   1.454       .  S
C139        O154   1.268       .  A
C140        C387   1.464       .  S
C141        C339   1.409       .  S
C141        O151   1.267       .  A
O142       Ti145   2.152   1_556  S
C144        C399   1.460       .  S
C144        O156   1.272       .  A
Ti145       O156   2.154   1_554  S
O146       Ti153   2.149       .  S
O148        C157   1.275       .  A
O149       Ti153   2.118       .  S
O150        C157   1.272       .  A
O152       Ti159   2.156   1_556  S
Ti153       O160   2.159       .  S
Ti153       O155   2.155       .  S
C157        C450   1.458       .  S
O161       Ti179   2.160       .  S
O161       Ti178   2.158   1_556  S
O162        C163   1.276       .  A
O162       Ti170   2.159       .  S
C163        C455   1.462       .  S
C163        O199   1.276       .  A
O164        C197   1.268       .  A
O164       Ti201   2.107       .  S
O165       Ti201   2.160       .  S
O165       Ti179   2.160       .  S
C166        C327   1.414       .  S
C166        O181   1.265       .  A
C166        O214   1.271       .  A
O167        C169   1.269       .  A
O167       Ti170   2.122       .  S
C168        C446   1.458       .  S
C168        O203   1.273       .  A
C168        O189   1.270       .  A
C169        C326   1.414       .  S
C169        O182   1.267       .  A
Ti170       O183   2.141       .  S
Ti170       O186   2.159       .  S
Ti170       O172   2.165       .  S
Ti170       O189   2.145       .  S
Ti171       O216   2.154       .  S
Ti171       O211   2.160       .  S
Ti171       O190   2.144   1_554  S
Ti171       O188   2.108       .  S
Ti171       O185   2.146   1_554  S
Ti171       O194   2.162   1_554  S
O172       Ti178   2.160       .  S
O173       Ti215   2.160       .  S
O173       Ti177   2.163       .  S
C174        C419   1.464       .  S
C174        O194   1.276       .  A
C174        O198   1.276       .  A
O175       Ti209   2.165       .  S
O175       Ti215   2.155   1_455  S
C176        C374   1.457       .  S
C176        O202   1.270       .  A
C176        O208   1.271       .  A
Ti177       O192   2.163       .  S
Ti177       O183   2.145       .  S
Ti177       O214   2.133       .  S
Ti177       O203   2.159       .  S
Ti177       O199   2.162       .  S
Ti178       O186   2.159       .  S
Ti178       O206   2.161   1_554  S
Ti178       O182   2.103       .  S
Ti178       O193   2.153   1_554  S
Ti179       O184   2.157       .  S
Ti179       O210   2.158       .  S
Ti179       O204   2.139       .  S
Ti179       O207   2.121       .  S
O180        C196   1.270       .  A
O180       Ti215   2.143   1_455  S
O181       Ti215   2.092       .  S
O184       Ti201   2.159       .  S
O185        C200   1.268       .  A
O187        C196   1.273       .  A
O187       Ti209   2.156       .  S
O188        C191   1.268       .  A
O190       Ti201   2.144   1_455  S
C191        C322   1.417       .  S
C191        O205   1.270       .  A
O192       Ti215   2.159       .  S
O193        C195   1.272       .  A
C195        C398   1.461       .  S
C195        O210   1.273       .  A
C196        C434   1.455       .  S
C197        C331   1.415       .  S
C197        O207   1.269       .  A
O198       Ti201   2.162   1_455  S
C200        C383   1.462       .  S
C200        O212   1.271       .  A
Ti201       O212   2.159   1_655  S
O202       Ti209   2.145       .  S
O204        C213   1.269       .  A
O205       Ti209   2.124       .  S
O206        C213   1.274       .  A
O208       Ti215   2.154   1_455  S
Ti209       O216   2.159       .  S
Ti209       O211   2.154       .  S
C213        C410   1.456       .  S
N217        C222   1.352       .  A
N217        C221   1.351       .  A
N217        H249   1.042       .  S
N218        C225   1.344       .  A
N218        C226   1.347       .  A
N219        C224   1.347       .  A
N219        C223   1.348       .  A
N219        H250   1.040   1_655  S
N220        C227   1.344       .  A
N220        C228   1.345       .  A
C221        C229   1.388       .  A
C221        C237   1.407       .  A
C222        C238   1.407       .  A
C222        C230   1.388       .  A
C223        C231   1.388       .  A
C223        C240   1.403       .  A
C224        C239   1.402       .  A
C224        C232   1.388       .  A
C225        C237   1.400       .  A
C225        C233   1.388       .  A
C226        C240   1.401   1_455  A
C226        C234   1.386       .  A
C227        C235   1.387       .  A
C227        C238   1.397       .  A
C228        C236   1.387       .  A
C228        C239   1.400   1_455  A
C229        C230   1.368       .  A
C229        H241   1.082       .  S
C230        H242   1.082       .  S
C231        C232   1.370       .  A
C231        H243   1.082       .  S
C232        H244   1.082       .  S
C233        C234   1.371       .  A
C233        H245   1.083       .  S
C234        H246   1.082       .  S
C235        C236   1.370       .  A
C235        H247   1.083       .  S
C236        H248   1.083       .  S
C237        C366   1.431       .  S
C238        C330   1.433       .  S
C239        C359   1.428       .  S
C240        C334   1.432       .  S
N251        C256   1.351       .  A
N251        C255   1.351       .  A
N251        H283   1.040       .  S
N252        C259   1.345       .  A
N252        C260   1.346       .  A
N253        C258   1.349       .  A
N253        C257   1.349       .  A
N253        H284   1.039       .  S
N254        C261   1.344       .  A
N254        C262   1.345       .  A
C255        C263   1.389       .  A
C255        C271   1.408       .  A
C256        C272   1.406       .  A
C256        C264   1.387       .  A
C257        C265   1.389   1_565  A
C257        C274   1.405       .  A
C258        C273   1.404       .  A
C258        C266   1.388   1_565  A
C259        C271   1.399       .  A
C259        C267   1.386       .  A
C260        C274   1.402       .  A
C260        C268   1.387       .  A
C261        C269   1.388       .  A
C261        C272   1.399       .  A
C262        C270   1.385       .  A
C262        C273   1.398       .  A
C263        C264   1.368       .  A
C263        H275   1.082       .  S
C264        H276   1.082       .  S
C265        C266   1.368       .  A
C265        H277   1.082       .  S
C266        H278   1.082       .  S
C267        C268   1.371       .  A
C267        H279   1.083       .  S
C268        H280   1.083       .  S
C269        C270   1.370       .  A
C269        H281   1.083       .  S
C270        H282   1.083       .  S
C271        C343   1.435       .  S
C272        C351   1.433       .  S
C273        C347   1.432   1_565  S
C274        C358   1.432       .  S
N285        C290   1.351       .  A
N285        C289   1.349       .  A
N285        H317   1.034       .  S
N286        C293   1.344       .  A
N286        C294   1.347       .  A
N287        C292   1.349       .  A
N287        C291   1.350   1_556  A
N287        H318   1.034       .  S
N288        C295   1.346       .  A
N288        C296   1.344       .  A
C289        C297   1.387   1_556  A
C289        C305   1.402       .  A
C290        C306   1.408       .  A
C290        C298   1.390   1_556  A
C291        C299   1.389       .  A
C291        C308   1.407   1_554  A
C292        C307   1.402       .  A
C292        C300   1.387   1_556  A
C293        C305   1.402       .  A
C293        C301   1.389       .  A
C294        C308   1.399       .  A
C294        C302   1.384       .  A
C295        C303   1.384       .  A
C295        C306   1.397       .  A
C296        C304   1.389       .  A
C296        C307   1.403       .  A
C297        C298   1.366       .  A
C297        H309   1.082       .  S
C298        H310   1.082       .  S
C299        C300   1.368       .  A
C299        H311   1.082       .  S
C300        H312   1.082       .  S
C301        C302   1.370       .  A
C301        H313   1.083       .  S
C302        H314   1.083       .  S
C303        C304   1.370       .  A
C303        H315   1.083       .  S
C304        H316   1.083       .  S
C305        C338   1.426   1_556  S
C306        C323   1.433   1_556  S
C307        C342   1.428   1_556  S
C308        C319   1.434   1_556  S
C319        C320   1.196       .  T
C320        C321   1.395       .  S
C321        C322   1.196       .  T
C323        C324   1.195       .  T
C324        C325   1.393       .  S
C325        C326   1.194       .  T
C327        C328   1.194       .  T
C328        C329   1.395   1_655  S
C329        C330   1.196       .  T
C331        C332   1.194       .  T
C332        C333   1.393       .  S
C333        C334   1.195       .  T
C335        C336   1.189       .  T
C336        C337   1.385       .  S
C337        C338   1.190       .  T
C339        C340   1.191       .  T
C340        C341   1.388       .  S
C341        C342   1.191       .  T
C343        C344   1.197   1_565  T
C344        C345   1.397       .  S
C345        C346   1.196       .  T
C347        C348   1.194       .  T
C348        C349   1.391       .  S
C349        C350   1.193       .  T
C351        C352   1.195   1_565  T
C352        C353   1.394       .  S
C353        C354   1.193       .  T
C355        C356   1.193       .  T
C356        C357   1.392       .  S
C357        C358   1.194   1_545  T
C359        C360   1.192       .  T
C360        C361   1.388       .  S
C361        C362   1.191       .  T
C363        C364   1.193       .  T
C364        C365   1.394   1_655  S
C365        C366   1.195       .  T
C367        C368   1.218       .  T
C368        C369   1.433       .  S
C369        C370   1.219       .  T
C371        C372   1.218       .  T
C372        C373   1.433       .  S
C373        C374   1.218       .  T
C375        C376   1.217       .  T
C376        C377   1.431       .  S
C377        C378   1.217       .  T
C379        C380   1.222       .  T
C380        C381   1.439       .  S
C381        C382   1.222       .  T
C383        C384   1.221       .  T
C384        C385   1.438       .  S
C385        C386   1.221       .  T
C387        C388   1.223       .  T
C388        C389   1.439       .  S
C389        C390   1.223       .  T
C391        C392   1.220       .  T
C392        C393   1.436       .  S
C393        C394   1.221       .  T
C395        C396   1.221       .  T
C396        C397   1.437       .  S
C397        C398   1.221       .  T
C399        C400   1.220       .  T
C400        C401   1.436       .  S
C401        C402   1.220       .  T
C403        C404   1.221       .  T
C404        C405   1.436       .  S
C405        C406   1.221       .  T
C407        C408   1.219       .  T
C408        C409   1.433       .  S
C409        C410   1.218       .  T
C411        C412   1.220       .  T
C412        C413   1.435       .  S
C413        C414   1.220       .  T
C415        C416   1.219       .  T
C416        C417   1.434       .  S
C417        C418   1.219       .  T
C419        C420   1.222       .  T
C420        C421   1.439       .  S
C421        C422   1.222       .  T
C423        C424   1.222       .  T
C424        C425   1.439       .  S
C425        C426   1.223       .  T
C427        C428   1.219       .  T
C428        C429   1.434       .  S
C429        C430   1.219       .  T
C431        C432   1.217       .  T
C432        C433   1.431       .  S
C433        C434   1.217       .  T
C435        C436   1.217       .  T
C436        C437   1.430       .  S
C437        C438   1.217       .  T
C439        C440   1.219       .  T
C440        C441   1.433       .  S
C441        C442   1.219       .  T
C443        C444   1.219       .  T
C444        C445   1.433       .  S
C445        C446   1.219       .  T
C447        C448   1.219       .  T
C448        C449   1.434       .  S
C449        C450   1.219       .  T
C451        C452   1.219       .  T
C452        C453   1.433       .  S
C453        C454   1.219       .  T
C455        C456   1.221       .  T
C456        C457   1.437       .  S
C457        C458   1.221       .  T
C459        C460   1.221       .  T
C460        C461   1.436       .  S
C461        C462   1.221       .  T
