geometry optimzed in LAMMPS
_audit_creation_date              2020-12-01 
_audit_creation_method            'lammps2cif' 
_symmetry_space_group_name_H-M    'P1' 
_symmetry_Int_Tables_number       1 
_symmetry_cell_setting            triclinic 
loop_ 
_symmetry_equiv_pos_as_xyz 
  x,y,z 
_cell_length_a                    28.82199069 
_cell_length_b                    28.860636560948834 
_cell_length_c                    53.24651346545338 
_cell_angle_alpha                 90.18488676850814 
_cell_angle_beta                  89.15371924267716 
_cell_angle_gamma                 89.91821655749149 
loop_ 
_atom_site_label 
_atom_site_type_symbol 
_atom_site_fract_x 
_atom_site_fract_y 
_atom_site_fract_z 
_atom_site_charge 
C1          C  0.82874642  0.62717453  0.30838717     0.80000
N2          N  0.84806375  0.60423847  0.32788334    -0.78300
C3          C  0.88999397  0.61729655  0.33680533     0.82500
N4          N  0.91208133  0.65436910  0.32646282    -0.78200
C5          C  0.89259460  0.67798998  0.30730081     0.82600
N6          N  0.85102499  0.66415417  0.29839052    -0.79900
C7          C  0.77638885  0.78282348  0.10554631     0.80000
N8          N  0.74846370  0.80916761  0.09087890    -0.78300
C9          C  0.70433257  0.79585909  0.08581091     0.82500
N10         N  0.68821184  0.75517981  0.09519249    -0.78200
C11         C  0.71568724  0.72803558  0.10952461     0.82600
N12         N  0.75924573  0.74260644  0.11491898    -0.79900
C13         C  0.33566251  0.72104858  0.33649065     0.80000
N14         N  0.30010875  0.74418391  0.32563509    -0.78300
C15         C  0.29136263  0.78936416  0.33099787     0.82500
N16         N  0.31837257  0.81147270  0.34795118    -0.78200
C17         C  0.35459377  0.78933989  0.35882164     0.82600
N18         N  0.36332400  0.74426447  0.35275380    -0.79900
C19         C  0.87917678  0.25794123  0.12381963     0.80000
N20         N  0.84100746  0.27690278  0.13470864    -0.78300
C21         C  0.82478472  0.31866865  0.12748107     0.82500
N22         N  0.84698068  0.34149875  0.10831842    -0.78200
C23         C  0.88535037  0.32264326  0.09686963     0.82600
N24         N  0.90126621  0.28104022  0.10507434    -0.79900
N25         N  0.95849084  0.90864128  0.24034185    -0.06300
N26         N  0.93522646  0.86940478  0.24250197    -0.58400
N27         N  0.97874816  0.01584471  0.26099059    -0.06000
N28         N  0.96274400  0.03965088  0.28062265    -0.60600
N29         N  0.94726164  0.01426066  0.24338706    -0.05600
N30         N  0.90963562  0.03685014  0.25060253    -0.58400
N31         N  0.99106662  0.91076001  0.25738455    -0.05300
N32         N  0.99055581  0.87335926  0.27147589    -0.60900
C33         C  0.95580634  0.84772116  0.26193392     0.95900
C34         C  0.91975026  0.05315860  0.27365001     0.95600
N35         N  0.12029277  0.03075107  0.24010311    -0.06500
N36         N  0.14624460  0.06776239  0.24390351    -0.59000
N37         N  0.09985013  0.92174080  0.25775300    -0.04600
N38         N  0.11440274  0.89397403  0.27570907    -0.60300
N39         N  0.13171697  0.92537673  0.23995882    -0.06500
N40         N  0.16866882  0.90052885  0.24555178    -0.59300
N41         N  0.08845409  0.02703937  0.25801044    -0.04300
N42         N  0.09207345  0.06114871  0.27435215    -0.60400
Mn43       Mn  0.03949344  0.96892282  0.25917682     1.18400
C44         C  0.12820476  0.08602807  0.26537244     0.97900
C45         C  0.15702342  0.88034999  0.26763458     0.98600
N46         N  0.94888243  0.02067588  0.18378893    -0.06600
N47         N  0.92038201  0.05639804  0.18202192    -0.62900
N48         N  0.98409414  0.91703626  0.16328021    -0.05400
N49         N  0.97179571  0.89039057  0.14425769    -0.63500
N50         N  0.95316099  0.91436075  0.18157815    -0.06100
N51         N  0.91955574  0.88568352  0.17553859    -0.63100
N52         N  0.98059379  0.02241235  0.16576333    -0.05000
N53         N  0.97436560  0.05891518  0.15142788    -0.63800
Mn54       Mn  0.95075954  0.96456158  0.21231997     1.10700
C55         C  0.93681785  0.07994564  0.16175744     0.99200
C56         C  0.93189154  0.87046467  0.15242098     0.99200
N57         N  0.12602781  0.92313052  0.18075135    -0.06100
N58         N  0.15342454  0.88665922  0.17847714    -0.61400
N59         N  0.08938603  0.02710973  0.16299504    -0.05400
N60         N  0.10013720  0.05497312  0.14413671    -0.58200
N61         N  0.12099815  0.02964956  0.18049608    -0.06700
N62         N  0.15353160  0.05951092  0.17398929    -0.61000
N63         N  0.09334901  0.92145680  0.16375821    -0.05700
N64         N  0.09799628  0.88414933  0.14963885    -0.58200
Mn65       Mn  0.12611388  0.97749948  0.21020338     1.20200
Mn66       Mn  0.03694822  0.97195602  0.16326847     1.10100
Cl67       Cl  0.03835933  0.97092823  0.21127286    -0.86200
C68         C  0.13582093  0.86280167  0.15886802     0.96200
C69         C  0.13979457  0.07555793  0.15150661     0.96000
C70         C  0.25012252  0.62291091  0.12858659     0.80000
N71         N  0.23395680  0.60066176  0.10807554    -0.78300
C72         C  0.19715537  0.61750242  0.09537856     0.82500
N73         N  0.17806754  0.65873106  0.10286878    -0.78200
C74         C  0.19477663  0.68181673  0.12313981     0.82600
N75         N  0.23072345  0.66337115  0.13578209    -0.79900
C76         C  0.76515439  0.13348465  0.32832517     0.80000
N77         N  0.73561171  0.11134953  0.34429437    -0.78300
C78         C  0.69515585  0.13141588  0.35227777     0.82500
N79         N  0.68470550  0.17443201  0.34360225    -0.78200
C80         C  0.71384596  0.19704315  0.32741853     0.82600
N81         N  0.75420033  0.17644656  0.32012611    -0.79900
C82         C  0.18170794  0.31487154  0.34234737     0.80000
N83         N  0.16601631  0.27407085  0.33284224    -0.78300
C84         C  0.18777713  0.25396342  0.31278438     0.82500
N85         N  0.22578766  0.27406006  0.30244528    -0.78200
C86         C  0.24188884  0.31465177  0.31152025     0.82600
N87         N  0.21975752  0.33471477  0.33148811    -0.79900
C88         C  0.36853365  0.14560056  0.08126885     0.80000
N89         N  0.32383531  0.13356245  0.08688109    -0.78300
C90         C  0.29731655  0.15896090  0.10319738     0.82500
N91         N  0.31644141  0.19649450  0.11405074    -0.78200
C92         C  0.36028646  0.20983668  0.10849400     0.82600
N93         N  0.38681205  0.18388786  0.09241315    -0.79900
N94         N  0.58939077  0.38462908  0.25397000    -0.06300
N95         N  0.61650828  0.34930919  0.25890367    -0.58000
N96         N  0.48354347  0.41797562  0.27288496    -0.06000
N97         N  0.44597169  0.41619415  0.28713717    -0.60600
N98         N  0.48261481  0.38589339  0.25528373    -0.05600
N99         N  0.44381877  0.36168755  0.25736795    -0.58400
N100        N  0.58929298  0.41470578  0.27254774    -0.05300
N101        N  0.61640535  0.39968166  0.29072993    -0.60900
C102        C  0.63350016  0.35887054  0.28176280     0.95900
C103        C  0.42145232  0.38082639  0.27753443     0.95600
N104        N  0.48154490  0.55733358  0.25681720    -0.06500
N105        N  0.44967167  0.58883581  0.26194537    -0.59000
N106        N  0.58982608  0.52498673  0.27096733    -0.04600
N107        N  0.62694109  0.52954078  0.28485272    -0.60300
N108        N  0.58866734  0.55726886  0.25355135    -0.06500
N109        N  0.62548949  0.58435056  0.25525265    -0.59300
N110        N  0.48330368  0.52648586  0.27485225    -0.04300
N111        N  0.45247120  0.53673827  0.29276608    -0.60400
Mn112      Mn  0.53679399  0.47110215  0.27366949     1.18400
C113        C  0.43116592  0.57547543  0.28419464     0.97900
C114        C  0.64867023  0.56687052  0.27509968     0.98600
N115        N  0.48450756  0.38171368  0.19666481    -0.06600
N116        N  0.45869554  0.34541777  0.19182889    -0.62900
N117        N  0.58788434  0.42025397  0.17720601    -0.05400
N118        N  0.62305094  0.41810455  0.16121631    -0.63500
N119        N  0.59092390  0.38791420  0.19445472    -0.06100
N120        N  0.62875632  0.36284872  0.19030116    -0.63100
N121        N  0.48233975  0.41201128  0.17842731    -0.05000
N122        N  0.45483321  0.39623804  0.16059925    -0.63800
Mn123      Mn  0.53709939  0.38387561  0.22515158     1.10700
C124        C  0.43973679  0.35465745  0.16948695     0.99200
C125        C  0.64825854  0.38196760  0.16931046     0.99200
N126        N  0.58192703  0.55964734  0.19455409    -0.06100
N127        N  0.61025432  0.59385982  0.18885610    -0.61400
N128        N  0.47689373  0.52110651  0.18037908    -0.05400
N129        N  0.44173822  0.52483842  0.16516126    -0.58200
N130        N  0.47580345  0.55393507  0.19760980    -0.06700
N131        N  0.43921833  0.58086132  0.19436152    -0.61000
N132        N  0.58186924  0.52852334  0.17649882    -0.05700
N133        N  0.61020971  0.54129155  0.15800212    -0.58200
Mn134      Mn  0.53190824  0.55858643  0.22569624     1.20200
Mn135      Mn  0.53207568  0.47053818  0.17746654     1.10100
Cl136      Cl  0.53463132  0.47107190  0.22551397    -0.86200
C137        C  0.62830248  0.58182862  0.16625270     0.96200
C138        C  0.41881120  0.56225900  0.17386450     0.96000
N139        N  0.53452418  0.95486595  0.50781247    -0.36800
N140        N  0.57567960  0.01409918  0.46948405    -0.57400
N141        N  0.53171137  0.95736742  0.43060356    -0.36800
N142        N  0.48656036  0.90234936  0.46953200    -0.57400
C143        C  0.55054650  0.99008913  0.52202345     0.26800
C144        C  0.50235967  0.93216192  0.52181759     0.26800
C145        C  0.54796388  0.99310931  0.41665993     0.26800
C146        C  0.49891909  0.93526256  0.41704663     0.26800
C147        C  0.59871360  0.03026715  0.48971211     0.35400
C148        C  0.59720685  0.03181429  0.44892308     0.35400
C149        C  0.47764785  0.87540059  0.48966171     0.35400
C150        C  0.47625680  0.87685156  0.44912673     0.35400
C151        C  0.52874907  0.98950571  0.54540320    -0.22100
C152        C  0.49813623  0.95309143  0.54523442    -0.22100
C153        C  0.52588844  0.99323069  0.39367657    -0.22100
C154        C  0.49465453  0.95698267  0.39401105    -0.22100
C155        C  0.63438325  0.05923303  0.48203216    -0.23100
C156        C  0.63333441  0.06040065  0.45622241    -0.23100
C157        C  0.46178876  0.83235779  0.48210903    -0.23100
C158        C  0.46071430  0.83331673  0.45631864    -0.23100
C159        C  0.58624953  0.02114005  0.51505793    -0.18500
C160        C  0.47885320  0.89136188  0.51462467    -0.18500
C161        C  0.47439341  0.89485977  0.42458255    -0.18500
C162        C  0.58386370  0.02398697  0.42368124    -0.18500
H163        H  0.53440209  0.01288472  0.56099423     0.14400
H164        H  0.47571908  0.94286769  0.56072800     0.14400
H165        H  0.53159874  0.01702221  0.37827514     0.14400
H166        H  0.47183344  0.94738475  0.37889946     0.14400
H167        H  0.65827128  0.07799039  0.49379863     0.12700
H168        H  0.65651979  0.08015260  0.44420956     0.12700
H169        H  0.45056611  0.80399884  0.49397277     0.12700
H170        H  0.44839146  0.80581018  0.44427856     0.12700
H171        H  0.54705470  0.94511241  0.49019844     0.26000
H172        H  0.54422035  0.94729746  0.44791582     0.26000
N173        N  0.05324344  0.46166597  0.00607897    -0.36800
N174        N  0.00366338  0.40990534  0.96860545    -0.57400
N175        N  0.05664182  0.45707729  0.92846108    -0.36800
N176        N  0.10179761  0.51296139  0.96650336    -0.57400
C177        C  0.01829311  0.44396195  0.02030776     0.26800
C178        C  0.07211388  0.49681220  0.01923972     0.26800
C179        C  0.02256662  0.43629627  0.91533547     0.26800
C180        C  0.07342226  0.49251512  0.91431197     0.26800
C181        C  0.98850265  0.38730099  0.98939659     0.35400
C182        C  0.99211140  0.38336755  0.94873540     0.35400
C183        C  0.12733835  0.52510577  0.98653971     0.35400
C184        C  0.12678562  0.52505925  0.94589674     0.35400
C185        C  0.01517829  0.46794313  0.04288233    -0.22100
C186        C  0.04925457  0.50125728  0.04223371    -0.22100
C187        C  0.01799304  0.45841414  0.89239863    -0.22100
C188        C  0.05017864  0.49376567  0.89172275    -0.22100
C189        C  0.96685626  0.34637873  0.98275543    -0.23100
C190        C  0.96940722  0.34368571  0.95700552    -0.23100
C191        C  0.16883511  0.54485715  0.97867540    -0.23100
C192        C  0.16834678  0.54511957  0.95286749    -0.23100
C193        C  0.99128390  0.40481561  0.01413909    -0.18500
C194        C  0.11131687  0.52291555  0.01167167    -0.18500
C195        C  0.11012263  0.52266622  0.92108925    -0.18500
C196        C  0.99650478  0.39713465  0.92326395    -0.18500
H197        H  0.99129212  0.46164649  0.05836867     0.14400
H198        H  0.05662873  0.52571854  0.05709521     0.14400
H199        H  0.99403131  0.44985277  0.87763115     0.14400
H200        H  0.05571915  0.51771054  0.87637419     0.14400
H201        H  0.95048683  0.32141004  0.99514257     0.12700
H202        H  0.95503416  0.31624025  0.94562074     0.12700
H203        H  0.19585373  0.55897843  0.99033400     0.12700
H204        H  0.19508003  0.55922224  0.94063345     0.12700
H205        H  0.06569375  0.44871230  0.98903684     0.26000
H206        H  0.06900184  0.44623058  0.94573076     0.26000
N207        N  0.03409399  0.46930772  0.43161126    -0.36800
N208        N  0.97488215  0.51694095  0.46759975    -0.57400
N209        N  0.01832249  0.46492945  0.50852932    -0.36800
N210        N  0.08195232  0.42186878  0.47222463    -0.57400
C211        C  0.01490261  0.50159545  0.41657789     0.26800
C212        C  0.07020227  0.45031597  0.41881773     0.26800
C213        C  0.99481523  0.49839463  0.52131678     0.26800
C214        C  0.05150917  0.44811868  0.52385978     0.26800
C215        C  0.95345134  0.52925837  0.44621622     0.35400
C216        C  0.94511337  0.52685087  0.48665411     0.35400
C217        C  0.09985987  0.39826012  0.45233148     0.35400
C218        C  0.09272636  0.39733074  0.49293826     0.35400
C219        C  0.03914832  0.50304713  0.39389709    -0.22100
C220        C  0.07376688  0.47043186  0.39522683    -0.22100
C221        C  0.01298375  0.50259269  0.54520350    -0.22100
C222        C  0.04867131  0.47080432  0.54682014    -0.22100
C223        C  0.90980439  0.54709635  0.45167863    -0.23100
C224        C  0.90463410  0.54589751  0.47735890    -0.23100
C225        C  0.12261913  0.35886842  0.46045042    -0.23100
C226        C  0.11824529  0.35834835  0.48618523    -0.23100
C227        C  0.97417347  0.52741196  0.42204483    -0.18500
C228        C  0.09777266  0.41288716  0.42703903    -0.18500
C229        C  0.08267166  0.41135351  0.51794663    -0.18500
C230        C  0.95601251  0.52350982  0.51236601    -0.18500
H231        H  0.03207421  0.52467099  0.37782659     0.14400
H232        H  0.09844900  0.46212362  0.38036549     0.14400
H233        H  0.00141373  0.52583266  0.56001865     0.14400
H234        H  0.06993210  0.46486490  0.56308510     0.14400
H235        H  0.88481263  0.56052300  0.43857294     0.12700
H236        H  0.87480868  0.55826840  0.48801286     0.12700
H237        H  0.14089306  0.33344607  0.44904070     0.12700
H238        H  0.13242990  0.33236173  0.49852535     0.12700
H239        H  0.02145900  0.45841067  0.44894200     0.26000
H240        H  0.01040649  0.45251438  0.49075437     0.26000
N241        N  0.52315150  0.94724999  0.93260565    -0.36800
N242        N  0.47425564  0.00129335  0.97079539    -0.57400
N243        N  0.52465840  0.95296921  0.01021533    -0.36800
N244        N  0.57697100  0.90268263  0.97155949    -0.57400
C245        C  0.50338420  0.98005741  0.91819295     0.26800
C246        C  0.55727968  0.92712228  0.91870566     0.26800
C247        C  0.50587908  0.98897928  0.02319452     0.26800
C248        C  0.56135541  0.93725359  0.02338106     0.26800
C249        C  0.45029591  0.01487020  0.95043065     0.35400
C250        C  0.45048235  0.01714353  0.99113969     0.35400
C251        C  0.58889050  0.87583692  0.95167350     0.35400
C252        C  0.59000259  0.87942362  0.99224710     0.35400
C253        C  0.52475539  0.98024565  0.89465361    -0.22100
C254        C  0.55884814  0.94689455  0.89500280    -0.22100
C255        C  0.53044089  0.99580907  0.04509312    -0.22100
C256        C  0.56560409  0.96337998  0.04513825    -0.22100
C257        C  0.41132579  0.03982013  0.95784779    -0.23100
C258        C  0.41128926  0.04106047  0.98363746    -0.23100
C259        C  0.60977523  0.83536518  0.95967938    -0.23100
C260        C  0.61003277  0.83739665  0.98545837    -0.23100
C261        C  0.46514424  0.00827634  0.92523744    -0.18500
C262        C  0.58547378  0.88982973  0.92642080    -0.18500
C263        C  0.58981498  0.89878534  0.01667767    -0.18500
C264        C  0.46641572  0.01497867  0.01613426    -0.18500
H265        H  0.51649550  0.00195098  0.87879195     0.14400
H266        H  0.58192428  0.93799242  0.87950020     0.14400
H267        H  0.52388810  0.02167773  0.05947805     0.14400
H268        H  0.59135281  0.95952380  0.05957226     0.14400
H269        H  0.38603631  0.05613457  0.94591127     0.12700
H270        H  0.38601457  0.05871101  0.99548866     0.12700
H271        H  0.62411388  0.80776646  0.94813458     0.12700
H272        H  0.62477307  0.81165131  0.99774700     0.12700
H273        H  0.51229506  0.93733616  0.95057273     0.26000
H274        H  0.51167110  0.93850940  0.99378521     0.26000
C275        C  0.70189929  0.73730372  0.81669463     0.80000
N276        N  0.67713598  0.75530177  0.83632781    -0.78300
C277        C  0.68988952  0.79588660  0.84721511     0.82500
N278        N  0.72860851  0.81801937  0.83841014    -0.78200
C279        C  0.75340922  0.80003081  0.81877664     0.82600
N280        N  0.73935580  0.76027846  0.80786587    -0.79900
C281        C  0.80380740  0.28459022  0.83621625     0.80000
N282        N  0.83229300  0.31108771  0.85038842    -0.78300
C283        C  0.87273643  0.29367718  0.85918723     0.82500
N284        N  0.88564632  0.24983411  0.85272824    -0.78200
C285        C  0.85783170  0.22285798  0.83844389     0.82600
N286        N  0.81711507  0.24085036  0.83029862    -0.79900
C287        C  0.38211211  0.11037217  0.84294377     0.80000
N288        N  0.40214671  0.14733315  0.83124080    -0.78300
C289        C  0.38095202  0.16893687  0.81174749     0.82500
N290        N  0.33941291  0.15321662  0.80412334    -0.78200
C291        C  0.31904727  0.11641898  0.81530261     0.82600
N292        N  0.34041041  0.09504441  0.83460585    -0.79900
C293        C  0.23094720  0.71216597  0.83364012     0.80000
N294        N  0.20375416  0.68370284  0.84787850    -0.78300
C295        C  0.21981952  0.64167173  0.85553322     0.82500
N296        N  0.26350496  0.62824767  0.84867217    -0.78200
C297        C  0.29109239  0.65637684  0.83449809     0.82600
N298        N  0.27424523  0.69787326  0.82690580    -0.79900
C299        C  0.19529860  0.30426134  0.58732539     0.80000
N300        N  0.23548116  0.31877247  0.59790860    -0.78300
C301        C  0.25948881  0.29066077  0.61352512     0.82500
N302        N  0.24319356  0.24778736  0.61865186    -0.78200
C303        C  0.20348686  0.23217929  0.60841143     0.82600
N304        N  0.17932997  0.26085501  0.59299973    -0.79900
C305        C  0.67964223  0.15834302  0.63310257     0.80000
N306        N  0.65978682  0.13692425  0.61315374    -0.78300
C307        C  0.67976469  0.09880396  0.60223474     0.82500
N308        N  0.72068094  0.08276708  0.61152388    -0.78200
C309        C  0.74065802  0.10426934  0.63146688     0.82600
N310        N  0.72024666  0.14210184  0.64172505    -0.79900
N311        N  0.62609149  0.51109864  0.74817660    -0.06300
N312        N  0.65214519  0.54867991  0.74971193    -0.58400
N313        N  0.59784125  0.40592581  0.76856672    -0.06000
N314        N  0.61372788  0.38188677  0.78774290    -0.60600
N315        N  0.62803331  0.40494307  0.74980239    -0.05600
N316        N  0.66478233  0.38031912  0.75584383    -0.58400
N317        N  0.59491980  0.51097826  0.76649825    -0.05300
N318        N  0.59881926  0.54793467  0.78072502    -0.60900
C319        C  0.63419681  0.57130817  0.77003320     0.95900
C320        C  0.65521147  0.36559960  0.77937223     0.95600
N321        N  0.45426359  0.40581784  0.75344132    -0.06500
N322        N  0.42809547  0.36866641  0.75640241    -0.59000
N323        N  0.48676140  0.51143183  0.77154549    -0.04600
N324        N  0.47733290  0.54244530  0.78932657    -0.60300
N325        N  0.45453617  0.51224976  0.75441575    -0.06500
N326        N  0.42296140  0.54367175  0.75994134    -0.59300
N327        N  0.48820111  0.40539597  0.76971572    -0.04300
N328        N  0.48588920  0.36831737  0.78394014    -0.60400
Mn329      Mn  0.54184966  0.45822512  0.76980460     1.18400
C330        C  0.44806106  0.34587937  0.77570997     0.97900
C331        C  0.43773834  0.56294983  0.78144175     0.98600
N332        N  0.61814423  0.39983009  0.69047334    -0.06600
N333        N  0.64245554  0.36130029  0.68742984    -0.62900
N334        N  0.59084174  0.50715894  0.67230401    -0.05400
N335        N  0.60050618  0.53824063  0.65478576    -0.63500
N336        N  0.62354461  0.50650506  0.68918102    -0.06100
N337        N  0.65588968  0.53707767  0.68365264    -0.63100
N338        N  0.58433763  0.40123029  0.67409158    -0.05000
N339        N  0.58509380  0.36411628  0.65964340    -0.63800
Mn340      Mn  0.62547049  0.45539021  0.71923261     1.10700
C341        C  0.62168887  0.33965990  0.66791986     0.99200
C342        C  0.64089172  0.55722167  0.66244342     0.99200
N343        N  0.45233396  0.51598292  0.69562019    -0.06100
N344        N  0.42843887  0.55503646  0.69428589    -0.61400
N345        N  0.47458291  0.40836196  0.67573241    -0.05400
N346        N  0.45772259  0.38290698  0.65729571    -0.58200
N347        N  0.44481362  0.40982423  0.69461656    -0.06700
N348        N  0.40753974  0.38545202  0.68945898    -0.61000
N349        N  0.48322226  0.51391193  0.67719469    -0.05700
N350        N  0.48122620  0.55120238  0.66309846    -0.58200
Mn351      Mn  0.45010113  0.46090691  0.72464905     1.20200
Mn352      Mn  0.53330906  0.45738602  0.67403982     1.10100
Cl353      Cl  0.53773132  0.45766111  0.72193146    -0.86200
C354        C  0.44725838  0.57670690  0.67398731     0.96200
C355        C  0.41583877  0.36850554  0.66613960     0.96000
C356        C  0.78361137  0.65247777  0.60719549     0.80000
N357        N  0.80677594  0.62785936  0.58908207    -0.78300
C358        C  0.84974422  0.64126957  0.58085727     0.82500
N359        N  0.87004005  0.67851659  0.59175460    -0.78200
C360        C  0.84739139  0.70334187  0.60974792     0.82600
N361        N  0.80444421  0.69018419  0.61741239    -0.79900
C362        C  0.32803570  0.81022981  0.63025863     0.80000
N363        N  0.34387341  0.77128203  0.64140480    -0.78300
C364        C  0.38173191  0.74883851  0.63227356     0.82500
N365        N  0.40445819  0.76612142  0.61185706    -0.78200
C366        C  0.38964889  0.80556887  0.60063337     0.82600
N367        N  0.35079285  0.82711360  0.60975962    -0.79900
N368        N  0.98145678  0.04888043  0.75395591    -0.06300
N369        N  0.95318707  0.08279871  0.76071304    -0.58400
N370        N  0.08813892  0.01546455  0.76853218    -0.06000
N371        N  0.12473578  0.01938556  0.78283254    -0.60600
N372        N  0.08800839  0.04774088  0.75109243    -0.05600
N373        N  0.12505454  0.07426178  0.75314776    -0.58400
N374        N  0.98299086  0.01731800  0.77167448    -0.05300
N375        N  0.95609975  0.02948126  0.79093997    -0.60900
C376        C  0.93694605  0.06992438  0.78356606     0.95900
C377        C  0.14746282  0.05595881  0.77297928     0.95600
N378        N  0.08914465  0.87584697  0.75170155    -0.06500
N379        N  0.11958116  0.84305393  0.75649364    -0.59000
N380        N  0.98207064  0.90850000  0.76923488    -0.04600
N381        N  0.94495525  0.90499383  0.78378256    -0.60300
N382        N  0.98200687  0.87654811  0.75153290    -0.06500
N383        N  0.94437602  0.85067553  0.75365051    -0.59300
N384        N  0.08831599  0.90682019  0.76979465    -0.04300
N385        N  0.11811928  0.89541711  0.78742087    -0.60400
Mn386      Mn  0.03534642  0.96194668  0.77052213     1.18400
C387        C  0.13805572  0.85589589  0.77859888     0.97900
C388        C  0.92166981  0.86905547  0.77379676     0.98600
N389        N  0.08307203  0.05257263  0.69169169    -0.06600
N390        N  0.10766520  0.08902496  0.68479549    -0.62900
N391        N  0.97792068  0.01427956  0.67680961    -0.05400
N392        N  0.94177194  0.01799258  0.66211532    -0.63500
N393        N  0.97712162  0.04690731  0.69420502    -0.06100
N394        N  0.94027344  0.07369504  0.69152564    -0.63100
N395        N  0.08335193  0.02121093  0.67371854    -0.05000
N396        N  0.10811204  0.03595258  0.65421192    -0.63800
Mn397      Mn  0.03235801  0.05034870  0.72280232     1.10700
C398        C  0.12363560  0.07799815  0.66156746     0.99200
C399        C  0.91888557  0.05534962  0.67130786     0.99200
N400        N  0.98569954  0.87329193  0.69271004    -0.06100
N401        N  0.95934195  0.83752851  0.68737393    -0.61400
N402        N  0.09084437  0.91227282  0.67538720    -0.05400
N403        N  0.12812388  0.91013718  0.66074389    -0.58200
N404        N  0.09203200  0.87982269  0.69271007    -0.06700
N405        N  0.13013096  0.85476060  0.69007474    -0.61000
N406        N  0.98440078  0.90413592  0.67466096    -0.05700
N407        N  0.95711681  0.88936731  0.65647111    -0.58200
Mn408      Mn  0.03724804  0.87505941  0.72216651     1.20200
Mn409      Mn  0.03400859  0.96286644  0.67442985     1.10100
Cl410      Cl  0.03463067  0.96263298  0.72244503    -0.86200
C411        C  0.94120500  0.84783323  0.66484966     0.96200
C412        C  0.15209150  0.87391447  0.67001552     0.96000
C413        C  0.24703862  0.79732611  0.64273762    -0.06000
C414        C  0.28288053  0.82936820  0.63872235    -0.00100
C415        C  0.27533218  0.87676953  0.64439223    -0.08600
C416        C  0.23166739  0.89016746  0.65429363    -0.06000
C417        C  0.19666699  0.85745266  0.65934463    -0.00100
C418        C  0.20421874  0.81025955  0.65334964    -0.08500
C419        C  0.16736618  0.77352200  0.65790993     0.61800
H420        H  0.25314053  0.76149802  0.63771881     0.12500
H421        H  0.22484647  0.92621368  0.65874281     0.12600
C422        C  0.31344037  0.91253244  0.64087947     0.62100
F423        F  0.17958675  0.73141538  0.64714370    -0.23100
F424        F  0.12576087  0.78730013  0.64765654    -0.20400
F425        F  0.16143183  0.76673686  0.68344184    -0.20100
F426        F  0.32401927  0.91732387  0.61561370    -0.20100
F427        F  0.35273581  0.89868953  0.65346777    -0.20500
F428        F  0.30028457  0.95555233  0.65013377    -0.23100
C429        C  0.86193428  0.78657705  0.61788841    -0.06000
C430        C  0.87169335  0.74017872  0.62345928    -0.00100
C431        C  0.90322238  0.72934989  0.64260891    -0.08600
C432        C  0.92465757  0.76578722  0.65546814    -0.06000
C433        C  0.91597263  0.81260827  0.64975047    -0.00100
C434        C  0.88385872  0.82333599  0.63062847    -0.08500
C435        C  0.87263818  0.87289025  0.62352153     0.61800
H436        H  0.83739979  0.79372203  0.60317588     0.12500
H437        H  0.94928163  0.75762654  0.66995579     0.12600
C438        C  0.91411005  0.67940722  0.64944663     0.62100
F439        F  0.83470677  0.87523410  0.60790809    -0.23100
F440        F  0.91030714  0.89203862  0.61099897    -0.20400
F441        F  0.86237945  0.89880599  0.64478982    -0.20100
F442        F  0.93591289  0.65759337  0.62934391    -0.20100
F443        F  0.87354960  0.65606344  0.65539545    -0.20500
F444        F  0.94304136  0.67655762  0.66992187    -0.23100
C445        C  0.38393596  0.62906577  0.66217705    -0.06000
C446        C  0.43173229  0.62187617  0.66426029    -0.00100
C447        C  0.46319324  0.65689965  0.65635431    -0.08600
C448        C  0.44519542  0.69814208  0.64643252    -0.06000
C449        C  0.39732324  0.70508635  0.64390780    -0.00100
C450        C  0.36597057  0.66975016  0.65164187    -0.08500
C451        C  0.31389001  0.67384932  0.64823895     0.61800
H452        H  0.36063991  0.60182817  0.66835536     0.12500
H453        H  0.46854892  0.72542585  0.64042729     0.12600
C454        C  0.51543016  0.65143033  0.65872577     0.62100
F455        F  0.29167622  0.63180294  0.65166810    -0.23100
F456        F  0.30429950  0.68875015  0.62418132    -0.20400
F457        F  0.29580993  0.70480665  0.66567364    -0.20100
F458        F  0.53143809  0.61790139  0.64214878    -0.20100
F459        F  0.52619757  0.63886198  0.68300886    -0.20500
F460        F  0.53876203  0.69216406  0.65326262    -0.23100
C461        C  0.67385638  0.58223630  0.62145934    -0.06000
C462        C  0.66991429  0.58936364  0.64748132    -0.00100
C463        C  0.69735919  0.62375752  0.65900688    -0.08600
C464        C  0.73244768  0.64513167  0.64470790    -0.06000
C465        C  0.74017877  0.63434727  0.61917249    -0.00100
C466        C  0.70798241  0.60504818  0.60686628    -0.08500
C467        C  0.70902344  0.59713707  0.57868802     0.61800
H468        H  0.65159406  0.55680750  0.61273046     0.12500
H469        H  0.75569803  0.66882139  0.65401436     0.12600
C470        C  0.68985544  0.63815128  0.68627263     0.62100
F471        F  0.66614040  0.58256489  0.57031171    -0.23100
F472        F  0.74150247  0.56349876  0.57259077    -0.20400
F473        F  0.71981263  0.63779477  0.56622618    -0.20100
F474        F  0.70633090  0.60433289  0.70215093    -0.20100
F475        F  0.64304289  0.64522744  0.69103357    -0.20500
F476        F  0.71278446  0.67901080  0.69172706    -0.23100
C477        C  0.64423376  0.23478555  0.62571675    -0.06000
C478        C  0.66124727  0.20281958  0.64310347    -0.00100
C479        C  0.66397803  0.21571224  0.66886217    -0.08600
C480        C  0.65050726  0.26074643  0.67598249    -0.06000
C481        C  0.63457051  0.29300238  0.65847703    -0.00100
C482        C  0.63138700  0.28001347  0.63281359    -0.08500
C483        C  0.61673289  0.31399228  0.61266363     0.61800
H484        H  0.64268403  0.22453208  0.60616687     0.12500
H485        H  0.65263047  0.27129609  0.69547165     0.12600
C486        C  0.68074487  0.18263134  0.68900504     0.62100
F487        F  0.62383396  0.29623128  0.58871740    -0.23100
F488        F  0.64234870  0.35433551  0.61451973    -0.20400
F489        F  0.57003714  0.32405488  0.61542994    -0.20100
F490        F  0.72835156  0.17736355  0.68707715    -0.20100
F491        F  0.65950460  0.13996505  0.68642074    -0.20500
F492        F  0.67049361  0.19896463  0.71294528    -0.23100
C493        C  0.82033407  0.12447466  0.64319614    -0.06000
C494        C  0.78607791  0.08998657  0.64130744    -0.00100
C495        C  0.79477736  0.04534327  0.65112249    -0.08600
C496        C  0.83924294  0.03546508  0.66003974    -0.06000
C497        C  0.87330192  0.06982660  0.66196153    -0.00100
C498        C  0.86363246  0.11548462  0.65402769    -0.08500
C499        C  0.89870608  0.15428750  0.65683041     0.61800
H500        H  0.81247912  0.15895403  0.63646693     0.12500
H501        H  0.84713263  0.00074625  0.66645655     0.12600
C502        C  0.75796222  0.00811268  0.65353107     0.62100
F503        F  0.88352454  0.19512577  0.64607996    -0.23100
F504        F  0.94026862  0.14200757  0.64531436    -0.20400
F505        F  0.90600144  0.16267241  0.68204522    -0.20100
F506        F  0.75954524  0.98025936  0.63243184    -0.20100
F507        F  0.71404936  0.02688199  0.65653771    -0.20500
F508        F  0.76595880  0.98072518  0.67433942    -0.23100
C509        C  0.19086125  0.11388063  0.63961961    -0.06000
C510        C  0.14298725  0.11296946  0.64418105    -0.00100
C511        C  0.11427834  0.14682190  0.63310243    -0.08600
C512        C  0.13516175  0.18396662  0.62015131    -0.06000
C513        C  0.18360248  0.18735957  0.61736674    -0.00100
C514        C  0.21172447  0.14986385  0.62565592    -0.08500
C515        C  0.26332891  0.14677883  0.61961875     0.61800
H516        H  0.21206406  0.08674798  0.64757834     0.12500
H517        H  0.11369404  0.21175361  0.61315640     0.12600
C518        C  0.06175664  0.14362909  0.63509658     0.62100
F519        F  0.27910873  0.10156013  0.62128200    -0.23100
F520        F  0.28808285  0.17347628  0.63631368    -0.20400
F521        F  0.27219233  0.16176955  0.59536068    -0.20100
F522        F  0.04743863  0.14828806  0.65986433    -0.20100
F523        F  0.04738151  0.10109847  0.62604829    -0.20500
F524        F  0.04022996  0.17778163  0.62125527    -0.23100
C525        C  0.33824084  0.32493023  0.61298558    -0.06000
C526        C  0.30041152  0.30804840  0.62699486    -0.00100
C527        C  0.30170276  0.30886160  0.65356177    -0.08600
C528        C  0.34108615  0.32707045  0.66520051    -0.06000
C529        C  0.37901696  0.34488258  0.65138177    -0.00100
C530        C  0.37793500  0.34320759  0.62464710    -0.08500
C531        C  0.41740538  0.36144330  0.60828090     0.61800
H532        H  0.33621231  0.32377138  0.59269909     0.12500
H533        H  0.34224805  0.32774230  0.68551188     0.12600
C534        C  0.26136228  0.29155674  0.66975374     0.62100
F535        F  0.40875935  0.35586358  0.58294462    -0.23100
F536        F  0.45782395  0.33763644  0.61345299    -0.20400
F537        F  0.42351019  0.40826723  0.61274265    -0.20100
F538        F  0.25992348  0.24372155  0.66896289    -0.20100
F539        F  0.21982966  0.30922066  0.66122050    -0.20500
F540        F  0.26559688  0.30491966  0.69460654    -0.23100
C541        C  0.34375496  0.64933352  0.79772808    -0.06000
C542        C  0.33512501  0.63880061  0.82311073    -0.00100
C543        C  0.36747853  0.61098447  0.83610085    -0.08600
C544        C  0.40348429  0.58911594  0.82223408    -0.06000
C545        C  0.40849786  0.59561625  0.79620055    -0.00100
C546        C  0.38053982  0.62900372  0.78413929    -0.08500
C547        C  0.38917275  0.64336285  0.75700623     0.61800
H548        H  0.32002860  0.67203519  0.78805968     0.12500
H549        H  0.42613999  0.56469011  0.83142792     0.12600
C550        C  0.36456981  0.60473625  0.86435362     0.62100
F551        F  0.36715588  0.68475096  0.75162487    -0.23100
F552        F  0.37257290  0.61001813  0.74077734    -0.20400
F553        F  0.43622878  0.64952730  0.75268224    -0.20100
F554        F  0.32935415  0.57428605  0.87053081    -0.20100
F555        F  0.35612366  0.64696329  0.87593894    -0.20500
F556        F  0.40562937  0.58729381  0.87366996    -0.23100
C557        C  0.22403301  0.76216191  0.79623735    -0.06000
C558        C  0.21138520  0.75416474  0.82147699    -0.00100
C559        C  0.18010766  0.78527537  0.83362445    -0.08600
C560        C  0.15894139  0.82021965  0.81926552    -0.06000
C561        C  0.16830961  0.82501415  0.79343275    -0.00100
C562        C  0.20329567  0.79723534  0.78199792    -0.08500
C563        C  0.21866068  0.80398992  0.75482183     0.61800
H564        H  0.24881426  0.73908540  0.78717670     0.12500
H565        H  0.13288230  0.84242943  0.82790139     0.12600
C566        C  0.16895967  0.78197327  0.86149622     0.62100
F567        F  0.26033752  0.78174334  0.74964412    -0.23100
F568        F  0.22481041  0.85065022  0.74990160    -0.20400
F569        F  0.18568058  0.78612785  0.73890858    -0.20100
F570        F  0.20947667  0.77713043  0.87486357    -0.20100
F571        F  0.14045217  0.74438280  0.86602433    -0.20500
F572        F  0.14638761  0.82133392  0.87028304    -0.23100
C573        C  0.42475505  0.24130773  0.81732113    -0.06000
C574        C  0.40000816  0.21255329  0.80101549    -0.00100
C575        C  0.39172405  0.22786103  0.77602597    -0.08600
C576        C  0.40869809  0.27144342  0.76868198    -0.06000
C577        C  0.43255307  0.30034604  0.78526028    -0.00100
C578        C  0.44043883  0.28534688  0.81019361    -0.08500
C579        C  0.46312345  0.31598734  0.82980713     0.61800
H580        H  0.43036597  0.22972404  0.83627659     0.12500
H581        H  0.40293514  0.28364741  0.74977324     0.12600
C582        C  0.36533343  0.19925956  0.75687254     0.62100
F583        F  0.45976917  0.29715640  0.85365530    -0.23100
F584        F  0.44147243  0.35880026  0.83059265    -0.20400
F585        F  0.50973714  0.32144588  0.82408214    -0.20100
F586        F  0.31872604  0.19801571  0.76335477    -0.20100
F587        F  0.38299989  0.15471868  0.75577103    -0.20500
F588        F  0.36880274  0.21784871  0.73295449    -0.23100
C589        C  0.27267293  0.09243727  0.77934361    -0.06000
C590        C  0.27490373  0.09937710  0.80540519    -0.00100
C591        C  0.23480681  0.09318166  0.82067232    -0.08600
C592        C  0.19360165  0.07941521  0.80910868    -0.06000
C593        C  0.19138790  0.07286010  0.78304675    -0.00100
C594        C  0.23145598  0.07880565  0.76779954    -0.08500
C595        C  0.23125903  0.06897843  0.73974944     0.61800
H596        H  0.30381495  0.09759462  0.76806665     0.12500
H597        H  0.16246167  0.07391054  0.82034572     0.12600
C598        C  0.23488173  0.10267353  0.84874908     0.62100
F599        F  0.27527064  0.07208773  0.72911814    -0.23100
F600        F  0.20312699  0.10062684  0.72784278    -0.20400
F601        F  0.21490252  0.02464209  0.73544727    -0.20100
F602        F  0.25114651  0.14696924  0.85322362    -0.20100
F603        F  0.26295906  0.07090137  0.86059201    -0.20500
F604        F  0.19081618  0.09937658  0.85931321    -0.23100
C605        C  0.92975391  0.11392030  0.82349963    -0.06000
C606        C  0.91071617  0.10172119  0.80028677    -0.00100
C607        C  0.86984504  0.12369916  0.79230601    -0.08600
C608        C  0.85241860  0.16111991  0.80632037    -0.06000
C609        C  0.87416251  0.17727407  0.82819009    -0.00100
C610        C  0.91183568  0.15113943  0.83794871    -0.08500
C611        C  0.93426224  0.16228772  0.86291869     0.61800
H612        H  0.96060432  0.09586539  0.82954553     0.12500
H613        H  0.82299965  0.17974852  0.79906962     0.12600
C614        C  0.84489248  0.10819424  0.76883815     0.62100
F615        F  0.96057610  0.12545652  0.87138542    -0.23100
F616        F  0.90064324  0.17151187  0.88107904    -0.20400
F617        F  0.96324006  0.20013865  0.86026316    -0.20100
F618        F  0.83929528  0.06060616  0.76916302    -0.20100
F619        F  0.87027841  0.12069216  0.74772139    -0.20500
F620        F  0.80128616  0.12811380  0.76725886    -0.23100
C621        C  0.68641523  0.30107550  0.80461131    -0.06000
C622        C  0.69103889  0.34657811  0.79597925    -0.00100
C623        C  0.72977059  0.37336106  0.80321288    -0.08600
C624        C  0.76484283  0.35213484  0.81718115    -0.06000
C625        C  0.76218492  0.30538236  0.82435951    -0.00100
C626        C  0.72119874  0.27990026  0.81899594    -0.08500
C627        C  0.71315809  0.23117910  0.82881518     0.61800
H628        H  0.65575485  0.28180640  0.79943752     0.12500
H629        H  0.79568836  0.37167375  0.82167425     0.12600
C630        C  0.73437529  0.42411118  0.79603918     0.62100
F631        F  0.66724419  0.21794284  0.82655654    -0.23100
F632        F  0.72415721  0.22907894  0.85399171    -0.20400
F633        F  0.74008855  0.19987703  0.81538758    -0.20100
F634        F  0.69378819  0.44763526  0.80196806    -0.20100
F635        F  0.74336376  0.42776132  0.77055525    -0.20500
F636        F  0.77013810  0.44554859  0.80867881    -0.23100
C637        C  0.69885812  0.62094405  0.78289931    -0.06000
C638        C  0.65101015  0.61561300  0.77998693    -0.00100
C639        C  0.62011124  0.65101261  0.78821093    -0.08600
C640        C  0.63852877  0.69016581  0.79999526    -0.06000
C641        C  0.68625626  0.69494759  0.80379527    -0.00100
C642        C  0.71730909  0.65995698  0.79500786    -0.08500
C643        C  0.76931640  0.66235598  0.79927080     0.61800
H644        H  0.72159698  0.59338983  0.77635043     0.12500
H645        H  0.61551770  0.71750795  0.80643033     0.12600
C646        C  0.56795137  0.64809767  0.78447987     0.62100
F647        F  0.79124039  0.62101705  0.79318303    -0.23100
F648        F  0.77777132  0.67168951  0.82429385    -0.20400
F649        F  0.78886660  0.69661116  0.78444799    -0.20100
F650        F  0.54884338  0.61647926  0.80108313    -0.20100
F651        F  0.55860429  0.63469369  0.76010074    -0.20500
F652        F  0.54636502  0.69036300  0.78872397    -0.23100
C653        C  0.79717549  0.82889711  0.78223862    -0.06000
C654        C  0.79505555  0.82280193  0.80839197    -0.00100
C655        C  0.83445673  0.83230847  0.82303908    -0.08600
C656        C  0.87529428  0.84676905  0.81073427    -0.06000
C657        C  0.87767042  0.85196341  0.78456015    -0.00100
C658        C  0.83778687  0.84413473  0.76997618    -0.08500
C659        C  0.83728059  0.85381451  0.74194256     0.61800
H660        H  0.76652930  0.82127934  0.77143761     0.12500
H661        H  0.90603570  0.85404469  0.82151738     0.12600
C662        C  0.83382511  0.82658923  0.85136427     0.62100
F663        F  0.79360458  0.84748482  0.73199630    -0.23100
F664        F  0.86757393  0.82435309  0.72938525    -0.20400
F665        F  0.85031869  0.89924170  0.73760758    -0.20100
F666        F  0.81860638  0.78268007  0.85774067    -0.20100
F667        F  0.80448742  0.85929802  0.86203704    -0.20500
F668        F  0.87744469  0.83259639  0.86142856    -0.23100
C669        C  0.45822740  0.07932385  0.89952511    -0.06000
C670        C  0.44178045  0.03491076  0.90509262    -0.00100
C671        C  0.40566718  0.01573725  0.89084701    -0.08600
C672        C  0.38818966  0.04131460  0.87062848    -0.06000
C673        C  0.40465648  0.08604540  0.86453567    -0.00100
C674        C  0.44006753  0.10579362  0.87973631    -0.08500
C675        C  0.45830524  0.15468769  0.87601449     0.61800
H676        H  0.48597027  0.09289670  0.91089448     0.12500
H677        H  0.36113739  0.02611578  0.85941457     0.12600
C678        C  0.38528457  0.96871288  0.89736270     0.62100
F679        F  0.48860938  0.16764201  0.89471305    -0.23100
F680        F  0.42169582  0.18570275  0.87664684    -0.20400
F681        F  0.48211992  0.15769343  0.85334077    -0.20100
F682        F  0.36678566  0.96997559  0.92146269    -0.20100
F683        F  0.41943133  0.93507389  0.89605306    -0.20500
F684        F  0.35028430  0.95612770  0.88118501    -0.23100
C685        C  0.59005194  0.83482584  0.89093533    -0.06000
C686        C  0.61352924  0.86495818  0.90699125    -0.00100
C687        C  0.66195194  0.87142377  0.90378822    -0.08600
C688        C  0.68539244  0.84580621  0.88509620    -0.06000
C689        C  0.66199867  0.81666165  0.86828303    -0.00100
C690        C  0.61300942  0.81118194  0.87119446    -0.08500
C691        C  0.58414142  0.78241628  0.85327654     0.61800
H692        H  0.55298764  0.83081614  0.89379330     0.12500
H693        H  0.72258534  0.85010060  0.88310214     0.12600
C694        C  0.69063105  0.90587384  0.91859599     0.62100
F695        F  0.53701410  0.78711020  0.85809568    -0.23100
F696        F  0.59510441  0.73600662  0.85570813    -0.20400
F697        F  0.59237043  0.79667345  0.82883819    -0.20100
F698        F  0.72226421  0.88204262  0.93296418    -0.20100
F699        F  0.66447388  0.93416730  0.93426603    -0.20500
F700        F  0.71466181  0.93415753  0.90198918    -0.23100
C701        C  0.11942040  0.32546109  0.56841629    -0.06000
C702        C  0.16691037  0.33601664  0.57107895    -0.00100
C703        C  0.18501394  0.37538436  0.55792040    -0.08600
C704        C  0.15551737  0.40019734  0.54175778    -0.06000
C705        C  0.10896936  0.38795150  0.53845436    -0.00100
C706        C  0.09021137  0.35064875  0.55238973    -0.08500
C707        C  0.03985564  0.33647889  0.54962389     0.61800
H708        H  0.10510359  0.29653079  0.57879988     0.12500
H709        H  0.16882174  0.42903290  0.53087998     0.12600
C710        C  0.23512207  0.39128667  0.56008677     0.62100
F711        F  0.02807079  0.30003445  0.56530717    -0.23100
F712        F  0.03209183  0.32283531  0.52513249    -0.20400
F713        F  0.01110857  0.37338849  0.55560013    -0.20100
F714        F  0.26494257  0.35554458  0.55347878    -0.20100
F715        F  0.24351606  0.40558788  0.58441293    -0.20500
F716        F  0.24504164  0.42835375  0.54444996    -0.23100
C717        C  0.93618755  0.60049433  0.53007736    -0.06000
C718        C  0.92826154  0.55262839  0.53024364    -0.00100
C719        C  0.89267129  0.53421314  0.54574973    -0.08600
C720        C  0.86757247  0.56444827  0.56171785    -0.06000
C721        C  0.87632338  0.61245079  0.56226836    -0.00100
C722        C  0.91052116  0.63107068  0.54554143    -0.08500
C723        C  0.91982472  0.68279009  0.54333649     0.61800
H724        H  0.96295956  0.61372173  0.51754313     0.12500
H725        H  0.84123008  0.55046714  0.57423624     0.12600
C726        C  0.88081070  0.48302298  0.54502430     0.62100
F727        F  0.94635521  0.69309030  0.52218898    -0.23100
F728        F  0.94376453  0.69811487  0.56407857    -0.20400
F729        F  0.87842952  0.70680459  0.54150179    -0.20100
F730        F  0.91850962  0.45713121  0.55248163    -0.20100
F731        F  0.86916842  0.47034355  0.52085442    -0.20500
F732        F  0.84367712  0.47253306  0.56078025    -0.23100
C733        C  0.15724915  0.53470253  0.88192331    -0.06000
C734        C  0.13158984  0.55437704  0.90188773    -0.00100
C735        C  0.13143368  0.60336243  0.90475365    -0.08600
C736        C  0.16144016  0.63011810  0.88963660    -0.06000
C737        C  0.18904422  0.61031520  0.87050587    -0.00100
C738        C  0.18499973  0.56198145  0.86565588    -0.08500
C739        C  0.20900361  0.53899261  0.84329113     0.61800
H740        H  0.15650102  0.49740702  0.87961388     0.12500
H741        H  0.16321061  0.66718428  0.89284429     0.12600
C742        C  0.10070938  0.62919561  0.92349666     0.62100
F743        F  0.19107074  0.49536363  0.83865836    -0.23100
F744        F  0.25579781  0.53423659  0.84784278    -0.20400
F745        F  0.20298006  0.56527092  0.82188751    -0.20100
F746        F  0.12768420  0.64620415  0.94267735    -0.20100
F747        F  0.06591479  0.60181001  0.93362884    -0.20500
F748        F  0.07960485  0.66610997  0.91165871    -0.23100
C749        C  0.95192803  0.31765868  0.87146424    -0.06000
C750        C  0.90364278  0.32258746  0.87487866    -0.00100
C751        C  0.88635289  0.35307927  0.89379973    -0.08600
C752        C  0.91814980  0.37854057  0.90801763    -0.06000
C753        C  0.96624988  0.37302913  0.90487041    -0.00100
C754        C  0.98373166  0.34189706  0.88642247    -0.08500
C755        C  0.03547394  0.33327054  0.88300264     0.61800
H756        H  0.96466306  0.29435158  0.85695387     0.12500
H757        H  0.90571007  0.40227268  0.92242309     0.12600
C758        C  0.83483742  0.35775715  0.89985621     0.62100
F759        F  0.04449446  0.29786324  0.86600019    -0.23100
F760        F  0.05465228  0.32101244  0.90569419    -0.20400
F761        F  0.05703351  0.37279595  0.87413740    -0.20100
F762        F  0.81462408  0.31442863  0.90188418    -0.20100
F763        F  0.81348329  0.38268334  0.88113300    -0.20500
F764        F  0.82700440  0.38067024  0.92240860    -0.23100
C765        C  0.64205856  0.01532525  0.54959017    -0.06000
C766        C  0.61208109  0.04366530  0.53592958    -0.00100
C767        C  0.60419319  0.08975820  0.54412326    -0.08600
C768        C  0.62850495  0.10632673  0.56506378    -0.06000
C769        C  0.65810027  0.07788260  0.57925523    -0.00100
C770        C  0.66418529  0.03090791  0.57148381    -0.08500
C771        C  0.69167706  0.99620977  0.58656222     0.61800
H772        H  0.64676353  0.97989730  0.54325138     0.12500
H773        H  0.62307722  0.14205058  0.57073573     0.12600
C774        C  0.56981541  0.12269669  0.53223326     0.62100
F775        F  0.68634415  0.95133107  0.57777974    -0.23100
F776        F  0.67631153  0.99701112  0.61127340    -0.20400
F777        F  0.73835918  0.00692940  0.58508909    -0.20100
F778        F  0.53972477  0.13950641  0.55060707    -0.20100
F779        F  0.54336681  0.10235459  0.51381775    -0.20500
F780        F  0.59373687  0.15949713  0.52172517    -0.23100
C781        C  0.48149376  0.84016902  0.55151586    -0.06000
C782        C  0.45426780  0.86481548  0.53461068    -0.00100
C783        C  0.40583352  0.86854988  0.53877821    -0.08600
C784        C  0.38636242  0.84786468  0.56031731    -0.06000
C785        C  0.41360253  0.82386704  0.57775400    -0.00100
C786        C  0.46225766  0.81956155  0.57315839    -0.08500
C787        C  0.49451559  0.79486521  0.59106349     0.61800
H788        H  0.51849899  0.83829157  0.54778905     0.12500
H789        H  0.34928581  0.85023583  0.56363695     0.12600
C790        C  0.37480098  0.89423625  0.52065250     0.62100
F791        F  0.54076090  0.80140756  0.58460803    -0.23100
F792        F  0.48593093  0.74775613  0.59045644    -0.20400
F793        F  0.48795399  0.81166756  0.61521661    -0.20100
F794        F  0.37260738  0.86979867  0.49838140    -0.20100
F795        F  0.39206691  0.93809525  0.51594980    -0.20500
F796        F  0.33000645  0.89910436  0.53004603    -0.23100
C797        C  0.45693320  0.09382090  0.03410856    -0.06000
C798        C  0.44429759  0.04696882  0.03487170    -0.00100
C799        C  0.40898490  0.03237400  0.05170835    -0.08600
C800        C  0.38650459  0.06577311  0.06685164    -0.06000
C801        C  0.39763755  0.11328959  0.06557838    -0.00100
C802        C  0.43434499  0.12755058  0.04913877    -0.08500
C803        C  0.44879251  0.17789151  0.04638288     0.61800
H804        H  0.48417722  0.10379599  0.02099348     0.12500
H805        H  0.35935335  0.05478738  0.07976027     0.12600
C806        C  0.39430006  0.98195111  0.05319518     0.62100
F807        F  0.48284392  0.18352867  0.02801203    -0.23100
F808        F  0.46659389  0.19408279  0.06870521    -0.20400
F809        F  0.41093375  0.20436369  0.03972897    -0.20100
F810        F  0.43166584  0.95481409  0.05987293    -0.20100
F811        F  0.37834794  0.96746502  0.03010739    -0.20500
F812        F  0.35916176  0.97518581  0.07083228    -0.23100
C813        C  0.38015679  0.24289866  0.14912408    -0.06000
C814        C  0.37986942  0.24839633  0.12302439    -0.00100
C815        C  0.39479855  0.29073032  0.11236036    -0.08600
C816        C  0.41371933  0.32465143  0.12822473    -0.06000
C817        C  0.41545427  0.31878787  0.15441659    -0.00100
C818        C  0.39667533  0.27754416  0.16521171    -0.08500
C819        C  0.39295802  0.26947561  0.19343003     0.61800
H820        H  0.36731112  0.21060813  0.15687607     0.12500
H821        H  0.42707631  0.35627142  0.11992770     0.12600
C822        C  0.39042779  0.30264135  0.08477490     0.62100
F823        F  0.36524162  0.23169866  0.19922888    -0.23100
F824        F  0.37330290  0.30782474  0.20501530    -0.20400
F825        F  0.43635806  0.26101487  0.20316396    -0.20100
F826        F  0.36344986  0.27153240  0.07171554    -0.20100
F827        F  0.43414391  0.30392607  0.07378348    -0.20500
F828        F  0.37003657  0.34586207  0.08258108    -0.23100
C829        C  0.18596057  0.37010157  0.37830006    -0.06000
C830        C  0.15930817  0.33757045  0.36482718    -0.00100
C831        C  0.11257816  0.32936557  0.37281560    -0.08600
C832        C  0.09538615  0.35281123  0.39421588    -0.06000
C833        C  0.12199234  0.38523883  0.40719824    -0.00100
C834        C  0.16785556  0.39465215  0.39912959    -0.08500
C835        C  0.19726793  0.43065989  0.41237048     0.61800
H836        H  0.22143853  0.37651944  0.37237796     0.12500
H837        H  0.06001536  0.34728440  0.40067104     0.12600
C838        C  0.07960511  0.29820326  0.35850700     0.62100
F839        F  0.23949496  0.43740817  0.40019497    -0.23100
F840        F  0.20577573  0.41631436  0.43661099    -0.20400
F841        F  0.17443467  0.47281820  0.41322984    -0.20100
F842        F  0.09377035  0.25255638  0.36019871    -0.20100
F843        F  0.07840807  0.31158524  0.33359595    -0.20500
F844        F  0.03467704  0.30072722  0.36801207    -0.23100
C845        C  0.31292620  0.36027817  0.31798651    -0.06000
C846        C  0.28556126  0.33478337  0.30136584    -0.00100
C847        C  0.30098355  0.32887971  0.27610130    -0.08600
C848        C  0.34588150  0.34378063  0.26944807    -0.06000
C849        C  0.37419985  0.36751406  0.28641924    -0.00100
C850        C  0.35620022  0.37849260  0.31078703    -0.08500
C851        C  0.38146518  0.40932579  0.32935069     0.61800
H852        H  0.30015807  0.36568837  0.33698432     0.12500
H853        H  0.35891246  0.33753245  0.25059008     0.12600
C854        C  0.26996300  0.30926545  0.25580076     0.62100
F855        F  0.35706837  0.41436927  0.35180723    -0.23100
F856        F  0.38689544  0.45316392  0.31930293    -0.20400
F857        F  0.42430736  0.39053114  0.33476215    -0.20100
F858        F  0.28747393  0.31837892  0.23197850    -0.20100
F859        F  0.22641638  0.32936293  0.25752636    -0.20500
F860        F  0.26616264  0.26176003  0.25827407    -0.23100
C861        C  0.67746442  0.05998205  0.37670187    -0.06000
C862        C  0.66280312  0.10465846  0.36945095    -0.00100
C863        C  0.61875692  0.12087323  0.37874580    -0.08600
C864        C  0.59345621  0.09290120  0.39588117    -0.06000
C865        C  0.60964088  0.04945922  0.40349729    -0.00100
C866        C  0.65157713  0.03203461  0.39324693    -0.08500
C867        C  0.66930682  0.98416014  0.40011401     0.61800
H868        H  0.71024858  0.04676707  0.36967790     0.12500
H869        H  0.56094070  0.10500466  0.40397937     0.12600
C870        C  0.59799088  0.16724962  0.37133049     0.62100
F871        F  0.70949527  0.97264745  0.38694104    -0.23100
F872        F  0.63610047  0.95125441  0.39464485    -0.20400
F873        F  0.67884922  0.98253946  0.42545235    -0.20100
F874        F  0.59365608  0.16950882  0.34552288    -0.20100
F875        F  0.62589378  0.20286555  0.37968596    -0.20500
F876        F  0.55415122  0.17391023  0.38173925    -0.23100
C877        C  0.67566425  0.27397867  0.33152731    -0.06000
C878        C  0.69946993  0.24184189  0.31614960    -0.00100
C879        C  0.70514885  0.25138274  0.29010815    -0.08600
C880        C  0.68689827  0.29281804  0.28067277    -0.06000
C881        C  0.66061019  0.32356140  0.29563599    -0.00100
C882        C  0.65514868  0.31436123  0.32168104    -0.08500
C883        C  0.62552366  0.34491635  0.33875388     0.61800
H884        H  0.67165381  0.26613366  0.35130125     0.12500
H885        H  0.69101800  0.30046828  0.26086416     0.12600
C886        C  0.72718986  0.21698847  0.27171210     0.62100
F887        F  0.62471388  0.32911759  0.36328587    -0.23100
F888        F  0.58034200  0.34546224  0.33033455    -0.20400
F889        F  0.64301597  0.38949123  0.33889857    -0.20100
F890        F  0.70650780  0.17401027  0.27437780    -0.20100
F891        F  0.77422767  0.21338347  0.27602571    -0.20500
F892        F  0.72185151  0.23045987  0.24697250    -0.23100
C893        C  0.16363026  0.52309838  0.04794076    -0.06000
C894        C  0.13651935  0.54877879  0.03143681    -0.00100
C895        C  0.13032522  0.59681356  0.03540578    -0.08600
C896        C  0.15208564  0.61774615  0.05597775    -0.06000
C897        C  0.17851647  0.59212881  0.07314523    -0.00100
C898        C  0.18458463  0.54350500  0.06895566    -0.08500
C899        C  0.21155053  0.51226011  0.08655559     0.61800
H900        H  0.16723675  0.48628154  0.04439426     0.12500
H901        H  0.14809150  0.65464639  0.05887069     0.12600
C902        C  0.09965808  0.62552954  0.01846529     0.62100
F903        F  0.20784937  0.46592072  0.08006007    -0.23100
F904        F  0.19454703  0.51694707  0.11086779    -0.20400
F905        F  0.25816371  0.52357541  0.08558936    -0.20100
F906        F  0.05573806  0.60641140  0.01766266    -0.20100
F907        F  0.11840852  0.62665694  0.99447875    -0.20500
F908        F  0.09529474  0.67077929  0.02687786    -0.23100
C909        C  0.33129755  0.59857611  0.12560243    -0.06000
C910        C  0.29230285  0.60672820  0.14095471    -0.00100
C911        C  0.29518807  0.60146348  0.16735602    -0.08600
C912        C  0.33787513  0.58831867  0.17753117    -0.06000
C913        C  0.37667701  0.57979027  0.16210231    -0.00100
C914        C  0.37383946  0.58530848  0.13571302    -0.08500
C915        C  0.41565297  0.57865497  0.11827413     0.61800
H916        H  0.32823036  0.60324713  0.10551167     0.12500
H917        H  0.34106458  0.58351519  0.19760296     0.12600
C918        C  0.25320253  0.60778886  0.18460695     0.62100
F919        F  0.40702766  0.59427410  0.09422873    -0.23100
F920        F  0.42696841  0.53218124  0.11658205    -0.20400
F921        F  0.45314967  0.60318193  0.12729231    -0.20100
F922        F  0.21675578  0.58122218  0.17603534    -0.20100
F923        F  0.24011623  0.65385695  0.18526824    -0.20500
F924        F  0.26237357  0.59425486  0.20896609    -0.23100
C925        C  0.18095903  0.14614130  0.13839032    -0.06000
C926        C  0.17238730  0.09914530  0.13437453    -0.00100
C927        C  0.20083608  0.07356085  0.11751962    -0.08600
C928        C  0.23941118  0.09550897  0.10642008    -0.06000
C929        C  0.25081359  0.14186405  0.11193530    -0.00100
C930        C  0.21934757  0.16855309  0.12721409    -0.08500
C931        C  0.22605349  0.21984711  0.13282133     0.61800
H932        H  0.15857893  0.16462160  0.15154167     0.12500
H933        H  0.26228288  0.07547097  0.09429229     0.12600
C934        C  0.19146272  0.02267574  0.11210425     0.62100
F935        F  0.18640012  0.23964805  0.14323632    -0.23100
F936        F  0.23625666  0.24362131  0.11090382    -0.20400
F937        F  0.26142910  0.22560320  0.14982905    -0.20100
F938        F  0.14884732  0.01831525  0.10075075    -0.20100
F939        F  0.19115226  0.99754106  0.13418289    -0.20500
F940        F  0.22482767  0.00347696  0.09624405    -0.23100
C941        C  0.18389798  0.16903175  0.31103511    -0.06000
C942        C  0.16962097  0.21170711  0.30122637    -0.00100
C943        C  0.14255975  0.21293395  0.27920240    -0.08600
C944        C  0.13068052  0.17090453  0.26770024    -0.06000
C945        C  0.14484529  0.12840509  0.27750748    -0.00100
C946        C  0.17179701  0.12697121  0.29944315    -0.08500
C947        C  0.18824022  0.08115514  0.31007961     0.61800
H948        H  0.20523652  0.16899424  0.32761701     0.12500
H949        H  0.10955419  0.17124352  0.25100406     0.12600
C950        C  0.12463098  0.25694499  0.26709325     0.62100
F951        F  0.21563752  0.08734850  0.33095545    -0.23100
F952        F  0.21407264  0.05752913  0.29204555    -0.20400
F953        F  0.15044689  0.05446378  0.31709310    -0.20100
F954        F  0.13811301  0.29707985  0.27912915    -0.20100
F955        F  0.07665815  0.25586371  0.26718523    -0.20500
F956        F  0.14053611  0.25889406  0.24247749    -0.23100
C957        C  0.83998802  0.04969783  0.29043762    -0.06000
C958        C  0.88324846  0.07194188  0.29076564    -0.00100
C959        C  0.88867425  0.11262455  0.30530482    -0.08600
C960        C  0.84951946  0.13093892  0.31817065    -0.06000
C961        C  0.80592101  0.10920333  0.31724282    -0.00100
C962        C  0.80106512  0.06752911  0.30336688    -0.08500
C963        C  0.75462200  0.04300572  0.30108206     0.61800
H964        H  0.83670976  0.01827135  0.27943644     0.12500
H965        H  0.85241784  0.16287363  0.32876737     0.12600
C966        C  0.93499653  0.13730656  0.30643854     0.62100
F967        F  0.75681902  0.00632263  0.28428019    -0.23100
F968        F  0.72135441  0.07365572  0.29269991    -0.20400
F969        F  0.74105171  0.02554489  0.32417032    -0.20100
F970        F  0.95083796  0.14717515  0.28239823    -0.20100
F971        F  0.96690027  0.10928951  0.31823475    -0.20500
F972        F  0.93176096  0.17858294  0.31967165    -0.23100
C973        C  0.21038416  0.75761875  0.14255272    -0.06000
C974        C  0.17791392  0.72853773  0.13085334    -0.00100
C975        C  0.13139407  0.74388572  0.12866157    -0.08600
C976        C  0.11975523  0.78827347  0.13779771    -0.06000
C977        C  0.15216783  0.81681473  0.14989382    -0.00100
C978        C  0.19827797  0.80085611  0.15276993    -0.08500
C979        C  0.23482142  0.82845702  0.16669017     0.61800
H980        H  0.24585047  0.74575413  0.14409453     0.12500
H981        H  0.08452685  0.80072041  0.13595531     0.12600
C982        C  0.09367478  0.71368614  0.11756178     0.62100
F983        F  0.27806808  0.80754023  0.16540574    -0.23100
F984        F  0.22231376  0.83192446  0.19180876    -0.20400
F985        F  0.23909857  0.87222133  0.15641201    -0.20100
F986        F  0.09307747  0.67092692  0.12922993    -0.20100
F987        F  0.10170782  0.70793817  0.09209431    -0.20500
F988        F  0.05004064  0.73322107  0.12071791    -0.23100
C989        C  0.91672976  0.39339585  0.03768460    -0.06000
C990        C  0.96383049  0.38210579  0.03469146    -0.00100
C991        C  0.98457435  0.35111170  0.05164601    -0.08600
C992        C  0.95793687  0.33427392  0.07197393    -0.06000
C993        C  0.91066522  0.34578334  0.07549062    -0.00100
C994        C  0.88932869  0.37524851  0.05756440    -0.08500
C995        C  0.83800718  0.38714216  0.05877067     0.61800
H996        H  0.90169820  0.41702566  0.02428946     0.12500
H997        H  0.97423744  0.31152568  0.08534872     0.12600
C998        C  0.03444838  0.33511892  0.04787553     0.62100
F999        F  0.82369180  0.40947941  0.03724117    -0.23100
F1000       F  0.82921629  0.41621589  0.07898020    -0.20400
F1001       F  0.81191587  0.34716330  0.06116433    -0.20100
F1002       F  0.06430971  0.37226489  0.05012825    -0.20100
F1003       F  0.03989572  0.31574869  0.02422102    -0.20500
F1004       F  0.04689473  0.30206062  0.06532429    -0.23100
C1005       C  0.92092127  0.13288011  0.12662148    -0.06000
C1006       C  0.91933400  0.12502938  0.15267348    -0.00100
C1007       C  0.90600388  0.16149647  0.16913150    -0.08600
C1008       C  0.89452985  0.20462861  0.15876097    -0.06000
C1009       C  0.89572582  0.21241543  0.13273428    -0.00100
C1010       C  0.90914062  0.17601983  0.11623925    -0.08500
C1011       C  0.91026057  0.18215962  0.08787921     0.61800
H1012       H  0.93179587  0.10473579  0.11437337     0.12500
H1013       H  0.88471313  0.23303513  0.17104244     0.12600
C1014       C  0.90518914  0.15567956  0.19749380     0.62100
F1015       F  0.91874483  0.14077938  0.07542048    -0.23100
F1016       F  0.94513915  0.21274796  0.08114205    -0.20400
F1017       F  0.86802959  0.19904621  0.07987821    -0.20100
F1018       F  0.94798149  0.14024963  0.20546633    -0.20100
F1019       F  0.87130253  0.12408879  0.20432871    -0.20500
F1020       F  0.89546223  0.19690627  0.20986254    -0.23100
C1021       C  0.75050894  0.36128512  0.12374751    -0.06000
C1022       C  0.78099108  0.33675020  0.13913172    -0.00100
C1023       C  0.76758291  0.32787492  0.16456138    -0.08600
C1024       C  0.72413823  0.34363379  0.17330180    -0.06000
C1025       C  0.69340310  0.36745892  0.15785200    -0.00100
C1026       C  0.70666408  0.37650533  0.13243983    -0.08500
C1027       C  0.67508423  0.40124129  0.11414229     0.61800
H1028       H  0.76091202  0.36753858  0.10445556     0.12500
H1029       H  0.71355454  0.33690364  0.19253680     0.12600
C1030       C  0.79785899  0.30130986  0.18273511     0.62100
F1031       F  0.69202875  0.39888431  0.08968655    -0.23100
F1032       F  0.67147206  0.44752996  0.12068687    -0.20400
F1033       F  0.63154762  0.38111462  0.11440431    -0.20100
F1034       F  0.84288673  0.31777505  0.18171395    -0.20100
F1035       F  0.79713266  0.25468966  0.17670520    -0.20500
F1036       F  0.78218540  0.30575098  0.20734698    -0.23100
C1037       C  0.36678656  0.84761706  0.39250625    -0.06000
C1038       C  0.38648882  0.81599309  0.37525079    -0.00100
C1039       C  0.43565859  0.81347899  0.37276629    -0.08600
C1040       C  0.46317978  0.84063771  0.38877709    -0.06000
C1041       C  0.44331166  0.87088000  0.40652313    -0.00100
C1042       C  0.39438840  0.87546540  0.40810020    -0.08500
C1043       C  0.37161536  0.91049883  0.42577124     0.61800
H1044       H  0.32933524  0.85026206  0.39372662     0.12500
H1045       H  0.50065630  0.83798954  0.38786701     0.12600
C1046       C  0.45933433  0.78348878  0.35288899     0.62100
F1047       F  0.32387945  0.91136093  0.42335288    -0.23100
F1048       F  0.38841453  0.95432282  0.42052850    -0.20400
F1049       F  0.38109486  0.89983131  0.45040147    -0.20100
F1050       F  0.43979649  0.79138586  0.32970215    -0.20100
F1051       F  0.45462346  0.73728892  0.35913443    -0.20500
F1052       F  0.50626203  0.79309862  0.35074809    -0.23100
C1053       C  0.21724006  0.79010328  0.30767365    -0.06000
C1054       C  0.25639741  0.81484243  0.31586846    -0.00100
C1055       C  0.26367461  0.86073209  0.30684197    -0.08600
C1056       C  0.23002272  0.88076669  0.29129120    -0.06000
C1057       C  0.19072572  0.85622192  0.28370986    -0.00100
C1058       C  0.18472852  0.80981051  0.29130506    -0.08500
C1059       C  0.14541002  0.78082157  0.28103502     0.61800
H1060       H  0.21264065  0.75468522  0.31387343     0.12500
H1061       H  0.23417040  0.91606517  0.28478415     0.12600
C1062       C  0.30757886  0.88796692  0.31227704     0.62100
F1063       F  0.14843273  0.73502596  0.28849335    -0.23100
F1064       F  0.14694035  0.78182185  0.25504527    -0.20400
F1065       F  0.10329293  0.79841011  0.28939912    -0.20100
F1066       F  0.34627008  0.86153878  0.30618235    -0.20100
F1067       F  0.30848416  0.90018332  0.33739643    -0.20500
F1068       F  0.31023106  0.92832255  0.29834455    -0.23100
C1069       C  0.34226952  0.66816608  0.30016371    -0.06000
C1070       C  0.35026513  0.67528071  0.32587234    -0.00100
C1071       C  0.37652926  0.64157809  0.33896412    -0.08600
C1072       C  0.40089789  0.60752279  0.32492590    -0.06000
C1073       C  0.39733861  0.60447823  0.29865472    -0.00100
C1074       C  0.36432165  0.63270379  0.28644875    -0.08500
C1075       C  0.35301747  0.62715313  0.25882255     0.61800
H1076       H  0.32083234  0.69255130  0.29015017     0.12500
H1077       H  0.42394655  0.58402924  0.33456224     0.12600
C1078       C  0.37902535  0.63873878  0.36737435     0.62100
F1079       F  0.31059030  0.64706837  0.25337565    -0.23100
F1080       F  0.35049038  0.58069090  0.25252310    -0.20400
F1081       F  0.38668671  0.64851256  0.24420005    -0.20100
F1082       F  0.34936191  0.66934510  0.37953811    -0.20100
F1083       F  0.42394771  0.64725889  0.37485949    -0.20500
F1084       F  0.36663058  0.59455711  0.37492799    -0.23100
C1085       C  0.60140332  0.86067168  0.05805430    -0.06000
C1086       C  0.62140460  0.87814221  0.03580146    -0.00100
C1087       C  0.66998744  0.87254549  0.03163359    -0.08600
C1088       C  0.69512578  0.84450504  0.04811288    -0.06000
C1089       C  0.67470246  0.82531029  0.06974455    -0.00100
C1090       C  0.62770867  0.83607816  0.07571400    -0.08500
C1091       C  0.60591654  0.82415454  0.10102643     0.61800
H1092       H  0.56463361  0.86609667  0.06140931     0.12500
H1093       H  0.73156189  0.83793625  0.04411773     0.12600
C1094       C  0.69734487  0.89513127  0.01036227     0.62100
F1095       F  0.56355084  0.84611890  0.10459069    -0.23100
F1096       F  0.63480748  0.83840184  0.12008025    -0.20400
F1097       F  0.59867606  0.77699768  0.10281400    -0.20100
F1098       F  0.73631414  0.91634416  0.01997095    -0.20100
F1099       F  0.67245356  0.92869260  0.99791967    -0.20500
F1100       F  0.71153231  0.86150261  0.99333452    -0.23100
C1101       C  0.70850427  0.67991355  0.14748257    -0.06000
C1102       C  0.69668399  0.68634075  0.12225895    -0.00100
C1103       C  0.66705210  0.65378392  0.11051494    -0.08600
C1104       C  0.64761250  0.61790938  0.12518448    -0.06000
C1105       C  0.65692439  0.61386469  0.15090329    -0.00100
C1106       C  0.68971994  0.64387670  0.16196065    -0.08500
C1107       C  0.70441841  0.63905675  0.18911034     0.61800
H1108       H  0.73103495  0.70487400  0.15633895     0.12500
H1109       H  0.62296361  0.59424769  0.11693172     0.12600
C1110       C  0.65594155  0.65649644  0.08276052     0.62100
F1111       F  0.74598116  0.66158460  0.19331735    -0.23100
F1112       F  0.71056293  0.59283406  0.19506153    -0.20400
F1113       F  0.67098980  0.65825953  0.20487037    -0.20100
F1114       F  0.69652300  0.66095497  0.06878355    -0.20100
F1115       F  0.62742119  0.69400537  0.07832444    -0.20500
F1116       F  0.63332551  0.61709558  0.07453247    -0.23100
C1117       C  0.83090677  0.84894925  0.10973327    -0.06000
C1118       C  0.82225778  0.80149095  0.11395128    -0.00100
C1119       C  0.85580384  0.77534715  0.12752990    -0.08600
C1120       C  0.89298587  0.79900360  0.13871597    -0.06000
C1121       C  0.89868548  0.84677142  0.13607474    -0.00100
C1122       C  0.86831720  0.87212750  0.12072924    -0.08500
C1123       C  0.87400040  0.92405194  0.11711569     0.61800
H1124       H  0.80661143  0.86886364  0.09885443     0.12500
H1125       H  0.91697589  0.78061587  0.15060173     0.12600
C1126       C  0.85312121  0.72313122  0.13088575     0.62100
F1127       F  0.84153573  0.94194578  0.10085543    -0.23100
F1128       F  0.91759515  0.93335678  0.10721698    -0.20400
F1129       F  0.86879623  0.94656048  0.13995808    -0.20100
F1130       F  0.84460441  0.70185886  0.10810013    -0.20100
F1131       F  0.81847512  0.71225807  0.14805665    -0.20500
F1132       F  0.89426926  0.70510618  0.13981026    -0.23100
C1133       C  0.93068838  0.52442768  0.38227443    -0.06000
C1134       C  0.95132340  0.55176792  0.40086206    -0.00100
C1135       C  0.95317329  0.60050898  0.39789205    -0.08600
C1136       C  0.93185853  0.62033322  0.37691647    -0.06000
C1137       C  0.91065939  0.59309448  0.35845368    -0.00100
C1138       C  0.91123415  0.54413245  0.36071368    -0.08500
C1139       C  0.89316752  0.51250287  0.34020429     0.61800
H1140       H  0.93072779  0.48715775  0.38464572     0.12500
H1141       H  0.93147628  0.65761502  0.37481826     0.12600
C1142       C  0.97860858  0.63147845  0.41625085     0.62100
F1143       F  0.90798002  0.46725524  0.34335146    -0.23100
F1144       F  0.90912642  0.52712991  0.31690546    -0.20400
F1145       F  0.84520337  0.51280361  0.34068035    -0.20100
F1146       F  0.02304671  0.61486679  0.41980073    -0.20100
F1147       F  0.95514854  0.63271652  0.43903964    -0.20500
F1148       F  0.98224525  0.67651003  0.40752323    -0.23100
C1149       C  0.74860813  0.60165692  0.31698952    -0.06000
C1150       C  0.78266957  0.61335565  0.29906801    -0.00100
C1151       C  0.77223569  0.61070960  0.27312035    -0.08600
C1152       C  0.72744992  0.59678302  0.26614351    -0.06000
C1153       C  0.69373777  0.58420632  0.28410572    -0.00100
C1154       C  0.70420064  0.58694425  0.31002618    -0.08500
C1155       C  0.66882053  0.57488653  0.33041310     0.61800
H1156       H  0.75725346  0.60388636  0.33668402     0.12500
H1157       H  0.71873340  0.59451652  0.24646889     0.12600
C1158       C  0.80833361  0.62089289  0.25279312     0.62100
F1159       F  0.68350966  0.58824803  0.35399097    -0.23100
F1160       F  0.66181073  0.52751650  0.33081455    -0.20400
F1161       F  0.62724306  0.59721485  0.32596678    -0.20100
F1162       F  0.79392723  0.60641805  0.22937417    -0.20100
F1163       F  0.84934176  0.59796801  0.25784552    -0.20500
F1164       F  0.81634457  0.66805280  0.25167980    -0.23100
C1165       C  0.91411670  0.72354464  0.26998637    -0.06000
C1166       C  0.91485912  0.71936358  0.29623843    -0.00100
C1167       C  0.93178229  0.75646004  0.31097311    -0.08600
C1168       C  0.94430228  0.79779482  0.29881313    -0.06000
C1169       C  0.94148479  0.80272405  0.27264919    -0.00100
C1170       C  0.92776886  0.76447962  0.25777629    -0.08500
C1171       C  0.92861979  0.76603704  0.22925469     0.61800
H1172       H  0.90217860  0.69432559  0.25905378     0.12500
H1173       H  0.95631376  0.82695846  0.30977694     0.12600
C1174       C  0.93679569  0.75284549  0.33927039     0.62100
F1175       F  0.92118031  0.72271146  0.21880567    -0.23100
F1176       F  0.97142173  0.78152740  0.22072602    -0.20400
F1177       F  0.89425603  0.79540114  0.22090465    -0.20100
F1178       F  0.97139899  0.72125226  0.34455975    -0.20100
F1179       F  0.89548518  0.73871688  0.35033308    -0.20500
F1180       F  0.94878877  0.79483508  0.35000134    -0.23100
loop_ 
_geom_bond_atom_site_label_1 
_geom_bond_atom_site_label_2 
_geom_bond_distance 
_geom_bond_site_symmetry_2 
_ccdc_geom_bond_type 
C1            N2   1.359       .  A
C1            N6   1.353       .  A
C1         C1150   1.479       .  S
N2            C3   1.358       .  A
C3            N4   1.360       .  A
C3         C1137   1.482       .  S
N4            C5   1.357       .  A
C5            N6   1.355       .  A
C5         C1166   1.477       .  S
C7            N8   1.363       .  A
C7           N12   1.356       .  A
C7         C1118   1.502       .  S
N8            C9   1.360       .  A
C9           N10   1.357       .  A
C9         C1089   1.486       .  S
N10          C11   1.358       .  A
C11          N12   1.359       .  A
C11        C1102   1.485       .  S
C13          N14   1.359       .  A
C13          N18   1.361       .  A
C13        C1070   1.493       .  S
N14          C15   1.356       .  A
C15          N16   1.359       .  A
C15        C1054   1.494       .  S
N16          C17   1.361       .  A
C17          N18   1.362       .  A
C17        C1038   1.491       .  S
C19          N20   1.350       .  A
C19          N24   1.354       .  A
C19        C1009   1.479       .  S
N20          C21   1.351       .  A
C21          N22   1.368       .  A
C21        C1022   1.491       .  S
N22          C23   1.366       .  A
C23          N24   1.360       .  A
C23         C993   1.502       .  S
N25          N26   1.321       .  A
N25          N31   1.317       .  A
N25         Mn54   2.215       .  S
N26          C33   1.355       .  A
N27          N29   1.315       .  A
N27          N28   1.326       .  A
N27         Mn43   2.213   1_645  S
N28          C34   1.356       .  A
N29          N30   1.316       .  A
N29         Mn54   2.187   1_545  S
N30          C34   1.349       .  A
N31          N32   1.317       .  A
N31         Mn43   2.187   1_655  S
N32          C33   1.350       .  A
C33        C1169   1.477       .  S
C34         C958   1.483       .  S
N35          N41   1.318       .  A
N35          N36   1.322       .  A
N35         Mn65   2.214   1_545  S
N36          C44   1.354       .  A
N37          N38   1.322       .  A
N37          N39   1.314       .  A
N37         Mn43   2.208       .  S
N38          C45   1.353       .  A
N39          N40   1.321       .  A
N39         Mn65   2.196       .  S
N40          C45   1.352       .  A
N41          N42   1.317       .  A
N41         Mn43   2.194   1_545  S
N42          C44   1.348       .  A
Mn43        Cl67   2.552       .  S
C44         C945   1.466       .  S
C45        C1057   1.479       .  S
N46          N47   1.322       .  A
N46          N52   1.317       .  A
N46         Mn54   2.225   1_545  S
N47          C55   1.357       .  A
N48          N50   1.313       .  A
N48          N49   1.323       .  A
N48         Mn66   2.200   1_655  S
N49          C56   1.353       .  A
N50          N51   1.318       .  A
N50         Mn54   2.183       .  S
N51          C56   1.348       .  A
N52          N53   1.317       .  A
N52         Mn66   2.182   1_645  S
N53          C55   1.349       .  A
Mn54        Cl67   2.532   1_655  S
C55        C1006   1.480       .  S
C56        C1121   1.471       .  S
N57          N58   1.319       .  A
N57          N63   1.317       .  A
N57         Mn65   2.215       .  S
N58          C68   1.354       .  A
N59          N60   1.322       .  A
N59          N61   1.315       .  A
N59         Mn66   2.196   1_545  S
N60          C69   1.352       .  A
N61          N62   1.318       .  A
N61         Mn65   2.193   1_545  S
N62          C69   1.350       .  A
N63          N64   1.317       .  A
N63         Mn66   2.182       .  S
N64          C68   1.351       .  A
Mn65        Cl67   2.536       .  S
Mn66        Cl67   2.557       .  S
C68         C977   1.483       .  S
C69         C926   1.469       .  S
C70          N71   1.354       .  A
C70          N75   1.346       .  A
C70         C910   1.468       .  S
N71          C72   1.357       .  A
C72          N73   1.366       .  A
C72         C897   1.497       .  S
N73          C74   1.361       .  A
C74          N75   1.353       .  A
C74         C974   1.487       .  S
C76          N77   1.356       .  A
C76          N81   1.354       .  A
C76         C961   1.481       .  S
N77          C78   1.363       .  A
C78          N79   1.361       .  A
C78         C862   1.511       .  S
N79          C80   1.363       .  A
C80          N81   1.357       .  A
C80         C878   1.488       .  S
C82          N83   1.361       .  A
C82          N87   1.360       .  A
C82         C830   1.500       .  S
N83          C84   1.359       .  A
C84          N85   1.351       .  A
C84         C942   1.465       .  S
N85          C86   1.351       .  A
C86          N87   1.359       .  A
C86         C846   1.483       .  S
C88          N89   1.364       .  A
C88          N93   1.363       .  A
C88         C801   1.498       .  S
N89          C90   1.361       .  A
C90          N91   1.348       .  A
C90         C929   1.497       .  S
N91          C92   1.350       .  A
C92          N93   1.361       .  A
C92         C814   1.471       .  S
N94          N95   1.313       .  A
N94         N100   1.314       .  A
N94        Mn123   2.167       .  S
N95         C102   1.347       .  A
N96          N98   1.316       .  A
N96          N97   1.314       .  A
N96        Mn112   2.172       .  S
N97         C103   1.346       .  A
N98          N99   1.323       .  A
N98        Mn123   2.229       .  S
N99         C103   1.360       .  A
N100        N101   1.327       .  A
N100       Mn112   2.221       .  S
N101        C102   1.359       .  A
C102        C881   1.488       .  S
C103        C849   1.487       .  S
N104        N110   1.313       .  A
N104        N105   1.317       .  A
N104       Mn134   2.187       .  S
N105        C113   1.350       .  A
N106        N107   1.316       .  A
N106        N108   1.317       .  A
N106       Mn112   2.186       .  S
N107        C114   1.349       .  A
N108        N109   1.323       .  A
N108       Mn134   2.225       .  S
N109        C114   1.357       .  A
N110        N111   1.326       .  A
N110       Mn112   2.219       .  S
N111        C113   1.358       .  A
Mn112      Cl136   2.566       .  S
C113       C1073   1.488       .  S
C114       C1153   1.479       .  S
N115        N116   1.313       .  A
N115        N121   1.311       .  A
N115       Mn123   2.161       .  S
N116        C124   1.344       .  A
N117        N119   1.315       .  A
N117        N118   1.315       .  A
N117       Mn135   2.165       .  S
N118        C125   1.346       .  A
N119        N120   1.323       .  A
N119       Mn123   2.240       .  S
N120        C125   1.362       .  A
N121        N122   1.326       .  A
N121       Mn135   2.217       .  S
N122        C124   1.361       .  A
Mn123      Cl136   2.517       .  S
C124        C817   1.490       .  S
C125       C1025   1.488       .  S
N126        N127   1.315       .  A
N126        N132   1.314       .  A
N126       Mn134   2.181       .  S
N127        C137   1.348       .  A
N128        N129   1.311       .  A
N128        N130   1.317       .  A
N128       Mn135   2.161       .  S
N129        C138   1.343       .  A
N130        N131   1.323       .  A
N130       Mn134   2.223       .  S
N131        C138   1.357       .  A
N132        N133   1.324       .  A
N132       Mn135   2.206       .  S
N133        C137   1.356       .  A
Mn134      Cl136   2.527       .  S
Mn135      Cl136   2.561       .  S
C137       C1105   1.480       .  S
C138        C913   1.465       .  S
N139        C144   1.353       .  A
N139        C143   1.351       .  A
N139        H171   1.038       .  S
N140        C147   1.355       .  A
N140        C148   1.353       .  A
N141        C146   1.357       .  A
N141        C145   1.353       .  A
N141        H172   1.037       .  S
N142        C149   1.348       .  A
N142        C150   1.347       .  A
C143        C151   1.386       .  A
C143        C159   1.412   1_565  A
C144        C160   1.414       .  A
C144        C152   1.387       .  A
C145        C153   1.388       .  A
C145        C162   1.420   1_565  A
C146        C161   1.420       .  A
C146        C154   1.386       .  A
C147        C159   1.417       .  A
C147        C155   1.384       .  A
C148        C162   1.421       .  A
C148        C156   1.389       .  A
C149        C157   1.385       .  A
C149        C160   1.406       .  A
C150        C158   1.388       .  A
C150        C161   1.410       .  A
C151        C152   1.373       .  A
C151        H163   1.082   1_565  S
C152        H164   1.082       .  S
C153        C154   1.381       .  A
C153        H165   1.082   1_565  S
C154        H166   1.082       .  S
C155        C156   1.376       .  A
C155        H167   1.082       .  S
C156        H168   1.082       .  S
C157        C158   1.374       .  A
C157        H169   1.082       .  S
C158        H170   1.082       .  S
C159        C766   1.494       .  S
C160        C782   1.485       .  S
C161       C1041   1.493       .  S
C162        C865   1.493       .  S
N173        C178   1.351       .  A
N173        C177   1.353       .  A
N173        H205   1.039   1_554  S
N174        C181   1.354   1_455  A
N174        C182   1.350   1_455  A
N175        C180   1.358       .  A
N175        C179   1.353       .  A
N175        H206   1.040       .  S
N176        C183   1.351       .  A
N176        C184   1.351       .  A
C177        C185   1.387       .  A
C177        C193   1.413   1_455  A
C178        C194   1.413       .  A
C178        C186   1.387       .  A
C179        C187   1.388       .  A
C179        C196   1.420   1_455  A
C180        C195   1.421       .  A
C180        C188   1.386       .  A
C181        C193   1.413   1_556  A
C181        C189   1.384       .  A
C182        C196   1.418       .  A
C182        C190   1.389       .  A
C183        C191   1.385       .  A
C183        C194   1.411   1_556  A
C184        C192   1.386       .  A
C184        C195   1.414       .  A
C185        C186   1.376       .  A
C185        H197   1.082   1_455  S
C186        H198   1.082       .  S
C187        C188   1.380       .  A
C187        H199   1.082   1_455  S
C188        H200   1.082       .  S
C189        C190   1.374       .  A
C189        H201   1.082       .  S
C190        H202   1.082       .  S
C191        C192   1.375       .  A
C191        H203   1.082       .  S
C192        H204   1.082       .  S
C193        C990   1.495       .  S
C194        C894   1.487       .  S
C195        C734   1.502       .  S
C196        C753   1.492       .  S
N207        C212   1.350       .  A
N207        C211   1.353       .  A
N207        H239   1.037       .  S
N208        C215   1.352       .  A
N208        C216   1.349       .  A
N209        C214   1.357       .  A
N209        C213   1.355   1_455  A
N209        H240   1.040       .  S
N210        C217   1.353       .  A
N210        C218   1.352       .  A
C211        C219   1.387       .  A
C211        C227   1.416   1_455  A
C212        C228   1.415       .  A
C212        C220   1.388       .  A
C213        C221   1.388   1_655  A
C213        C230   1.421       .  A
C214        C229   1.421       .  A
C214        C222   1.386       .  A
C215        C227   1.412       .  A
C215        C223   1.385       .  A
C216        C230   1.413       .  A
C216        C224   1.388       .  A
C217        C225   1.385       .  A
C217        C228   1.415       .  A
C218        C226   1.387       .  A
C218        C229   1.416       .  A
C219        C220   1.373       .  A
C219        H231   1.082       .  S
C220        H232   1.082       .  S
C221        C222   1.381       .  A
C221        H233   1.082       .  S
C222        H234   1.082       .  S
C223        C224   1.374       .  A
C223        H235   1.082       .  S
C224        H236   1.082       .  S
C225        C226   1.374       .  A
C225        H237   1.082       .  S
C226        H238   1.082       .  S
C227       C1134   1.492       .  S
C228        C833   1.487       .  S
C229        C705   1.500       .  S
C230        C718   1.491       .  S
N241        C246   1.352       .  A
N241        C245   1.351       .  A
N241        H273   1.043       .  S
N242        C249   1.353       .  A
N242        C250   1.351       .  A
N243        C248   1.356       .  A
N243        C247   1.354       .  A
N243        H274   1.043   1_554  S
N244        C251   1.350       .  A
N244        C252   1.350       .  A
C245        C253   1.388       .  A
C245        C261   1.415   1_565  A
C246        C262   1.413       .  A
C246        C254   1.387       .  A
C247        C255   1.387       .  A
C247        C264   1.418   1_565  A
C248        C263   1.421       .  A
C248        C256   1.387       .  A
C249        C261   1.414       .  A
C249        C257   1.385       .  A
C250        C264   1.416   1_556  A
C250        C258   1.387       .  A
C251        C259   1.385       .  A
C251        C262   1.410       .  A
C252        C260   1.387       .  A
C252        C263   1.414   1_556  A
C253        C254   1.375       .  A
C253        H265   1.082   1_565  S
C254        H266   1.082       .  S
C255        C256   1.379       .  A
C255        H267   1.082   1_565  S
C256        H268   1.082       .  S
C257        C258   1.374       .  A
C257        H269   1.082       .  S
C258        H270   1.082       .  S
C259        C260   1.374       .  A
C259        H271   1.082       .  S
C260        H272   1.082       .  S
C261        C670   1.490       .  S
C262        C686   1.486       .  S
C263       C1086   1.500       .  S
C264        C798   1.493       .  S
C275        N276   1.358       .  A
C275        N280   1.347       .  A
C275        C641   1.475       .  S
N276        C277   1.359       .  A
C277        N278   1.364       .  A
C277        C689   1.494       .  S
N278        C279   1.359       .  A
C279        N280   1.350       .  A
C279        C654   1.471       .  S
C281        N282   1.358       .  A
C281        N286   1.354       .  A
C281        C625   1.490       .  S
N282        C283   1.359       .  A
C283        N284   1.360       .  A
C283        C750   1.486       .  S
N284        C285   1.358       .  A
C285        N286   1.360       .  A
C285        C609   1.495       .  S
C287        N288   1.362       .  A
C287        N292   1.361       .  A
C287        C673   1.504       .  S
N288        C289   1.364       .  A
C289        N290   1.349       .  A
C289        C574   1.487       .  S
N290        C291   1.350       .  A
C291        N292   1.356       .  A
C291        C590   1.469       .  S
C293        N294   1.361       .  A
C293        N298   1.357       .  A
C293        C558   1.490       .  S
N294        C295   1.364       .  A
C295        N296   1.361       .  A
C295        C737   1.492       .  S
N296        C297   1.360       .  A
C297        N298   1.357       .  A
C297        C542   1.486       .  S
C299        N300   1.361       .  A
C299        N304   1.368       .  A
C299        C702   1.511       .  S
N300        C301   1.359       .  A
C301        N302   1.351       .  A
C301        C526   1.477       .  S
N302        C303   1.352       .  A
C303        N304   1.365       .  A
C303        C513   1.492       .  S
C305        N306   1.361       .  A
C305        N310   1.348       .  A
C305        C478   1.482       .  S
N306        C307   1.365       .  A
C307        N308   1.366       .  A
C307        C769   1.507       .  S
N308        C309   1.363       .  A
C309        N310   1.350       .  A
C309        C494   1.476       .  S
N311        N312   1.323       .  A
N311        N317   1.316       .  A
N311       Mn340   2.224       .  S
N312        C319   1.358       .  A
N313        N315   1.315       .  A
N313        N314   1.323       .  A
N313       Mn329   2.208       .  S
N314        C320   1.353       .  A
N315        N316   1.319       .  A
N315       Mn340   2.189       .  S
N316        C320   1.349       .  A
N317        N318   1.312       .  A
N317       Mn329   2.165       .  S
N318        C319   1.344       .  A
C319        C638   1.468       .  S
C320        C622   1.476       .  S
N321        N327   1.316       .  A
N321        N322   1.320       .  A
N321       Mn351   2.217       .  S
N322        C330   1.357       .  A
N323        N324   1.326       .  A
N323        N325   1.312       .  A
N323       Mn329   2.208       .  S
N324        C331   1.357       .  A
N325        N326   1.313       .  A
N325       Mn351   2.172       .  S
N326        C331   1.346       .  A
N327        N328   1.314       .  A
N327       Mn329   2.173       .  S
N328        C330   1.347       .  A
Mn329      Cl353   2.554       .  S
C330        C577   1.478       .  S
C331        C545   1.480       .  S
N332        N333   1.322       .  A
N332        N338   1.318       .  A
N332       Mn340   2.226       .  S
N333        C341   1.357       .  A
N334        N336   1.312       .  A
N334        N335   1.323       .  A
N334       Mn352   2.197       .  S
N335        C342   1.355       .  A
N336        N337   1.315       .  A
N336       Mn340   2.181       .  S
N337        C342   1.348       .  A
N338        N339   1.317       .  A
N338       Mn352   2.187       .  S
N339        C341   1.349       .  A
Mn340      Cl353   2.532       .  S
C341        C481   1.481       .  S
C342        C462   1.477       .  S
N343        N344   1.323       .  A
N343        N349   1.316       .  A
N343       Mn351   2.221       .  S
N344        C354   1.357       .  A
N345        N346   1.323       .  A
N345        N347   1.313       .  A
N345       Mn352   2.209       .  S
N346        C355   1.356       .  A
N347        N348   1.317       .  A
N347       Mn351   2.179       .  S
N348        C355   1.351       .  A
N349        N350   1.316       .  A
N349       Mn352   2.181       .  S
N350        C354   1.347       .  A
Mn351      Cl353   2.529       .  S
Mn352      Cl353   2.555       .  S
C354        C446   1.476       .  S
C355        C529   1.494       .  S
C356        N357   1.362       .  A
C356        N361   1.360       .  A
C356        C465   1.493       .  S
N357        C358   1.364       .  A
C358        N359   1.357       .  A
C358        C721   1.493       .  S
N359        C360   1.354       .  A
C360        N361   1.353       .  A
C360        C430   1.472       .  S
C362        N363   1.355       .  A
C362        N367   1.357       .  A
C362        C414   1.477       .  S
N363        C364   1.352       .  A
C364        N365   1.358       .  A
C364        C449   1.480       .  S
N365        C366   1.359       .  A
C366        N367   1.363       .  A
C366        C785   1.490       .  S
N368        N369   1.318       .  A
N368        N374   1.315       .  A
N368       Mn397   2.199   1_655  S
N369        C376   1.351       .  A
N370        N372   1.317       .  A
N370        N371   1.315       .  A
N370       Mn386   2.171   1_545  S
N371        C377   1.347       .  A
N372        N373   1.320       .  A
N372       Mn397   2.218       .  S
N373        C377   1.354       .  A
N374        N375   1.323       .  A
N374       Mn386   2.196   1_645  S
N375        C376   1.352       .  A
C376        C606   1.476       .  S
C377        C593   1.466       .  S
N378        N384   1.312       .  A
N378        N379   1.318       .  A
N378       Mn408   2.186       .  S
N379        C387   1.350       .  A
N380        N381   1.316       .  A
N380        N382   1.317       .  A
N380       Mn386   2.180   1_655  S
N381        C388   1.348       .  A
N382        N383   1.321       .  A
N382       Mn408   2.215   1_655  S
N383        C388   1.355       .  A
N384        N385   1.324       .  A
N384       Mn386   2.203       .  S
N385        C387   1.356       .  A
Mn386      Cl410   2.560       .  S
C387        C561   1.484       .  S
C388        C657   1.470       .  S
N389        N390   1.319       .  A
N389        N395   1.315       .  A
N389       Mn397   2.194       .  S
N390        C398   1.350       .  A
N391        N393   1.319       .  A
N391        N392   1.317       .  A
N391       Mn409   2.195   1_645  S
N392        C399   1.350       .  A
N393        N394   1.322       .  A
N393       Mn397   2.221   1_655  S
N394        C399   1.355       .  A
N395        N396   1.323       .  A
N395       Mn409   2.206   1_545  S
N396        C398   1.353       .  A
Mn397      Cl410   2.532   1_545  S
C398        C510   1.476       .  S
C399        C497   1.472       .  S
N400        N401   1.315       .  A
N400        N406   1.313       .  A
N400       Mn408   2.177   1_655  S
N401        C411   1.349       .  A
N402        N403   1.319       .  A
N402        N404   1.317       .  A
N402       Mn409   2.194       .  S
N403        C412   1.351       .  A
N404        N405   1.320       .  A
N404       Mn408   2.214       .  S
N405        C412   1.353       .  A
N406        N407   1.326       .  A
N406       Mn409   2.219   1_655  S
N407        C411   1.358       .  A
Mn408      Cl410   2.528       .  S
Mn409      Cl410   2.557       .  S
C411        C433   1.491       .  S
C412        C417   1.474       .  S
C413        C414   1.402       .  A
C413        C418   1.399       .  A
C413        H420   1.081       .  S
C414        C415   1.416       .  A
C415        C416   1.410       .  A
C415        C422   1.518       .  S
C416        C417   1.406       .  A
C416        H421   1.083       .  S
C417        C418   1.414       .  A
C418        C419   1.519       .  S
C419        F423   1.385       .  S
C419        F424   1.383       .  S
C419        F425   1.382       .  S
C422        F426   1.382       .  S
C422        F427   1.384       .  S
C422        F428   1.385       .  S
C429        C430   1.402       .  A
C429        C434   1.412       .  A
C429        H436   1.083       .  S
C430        C431   1.411       .  A
C431        C432   1.402       .  A
C431        C438   1.521       .  S
C432        C433   1.409       .  A
C432        H437   1.082       .  S
C433        C434   1.421       .  A
C434        C435   1.516       .  S
C435        F439   1.385       .  S
C435        F440   1.383       .  S
C435        F441   1.383       .  S
C438        F442   1.383       .  S
C438        F443   1.383       .  S
C438        F444   1.385       .  S
C445        C446   1.399       .  A
C445        C450   1.404       .  A
C445        H452   1.083       .  S
C446        C447   1.420       .  A
C447        C448   1.405       .  A
C447        C454   1.521       .  S
C448        C449   1.402       .  A
C448        H453   1.083       .  S
C449        C450   1.421       .  A
C450        C451   1.519       .  S
C451        F455   1.384       .  S
C451        F456   1.384       .  S
C451        F457   1.382       .  S
C454        F458   1.382       .  S
C454        F459   1.384       .  S
C454        F460   1.385       .  S
C461        C462   1.403       .  A
C461        C466   1.410       .  A
C461        H468   1.084       .  S
C462        C463   1.414       .  A
C463        C464   1.402       .  A
C463        C470   1.521       .  S
C464        C465   1.408       .  A
C464        H469   1.082       .  S
C465        C466   1.422       .  A
C466        C467   1.517       .  S
C467        F471   1.386       .  S
C467        F472   1.382       .  S
C467        F473   1.383       .  S
C470        F474   1.382       .  S
C470        F475   1.384       .  S
C470        F476   1.385       .  S
C477        C478   1.402       .  A
C477        C482   1.405       .  A
C477        H484   1.083       .  S
C478        C479   1.423       .  A
C479        C480   1.405       .  A
C479        C486   1.522       .  S
C480        C481   1.401       .  A
C480        H485   1.083       .  S
C481        C482   1.420       .  A
C482        C483   1.520       .  S
C483        F487   1.385       .  S
C483        F488   1.384       .  S
C483        F489   1.382       .  S
C486        F490   1.383       .  S
C486        F491   1.383       .  S
C486        F492   1.385       .  S
C493        C494   1.407       .  A
C493        C498   1.407       .  A
C493        H500   1.083       .  S
C494        C495   1.415       .  A
C495        C496   1.402       .  A
C495        C502   1.516       .  S
C496        C497   1.401       .  A
C496        H501   1.085       .  S
C497        C498   1.414       .  A
C498        C499   1.518       .  S
C499        F503   1.385       .  S
C499        F504   1.383       .  S
C499        F505   1.383       .  S
C502        F506   1.379   1_545  S
C502        F507   1.383       .  S
C502        F508   1.385   1_545  S
C509        C510   1.398       .  A
C509        C514   1.409       .  A
C509        H516   1.084       .  S
C510        C511   1.415       .  A
C511        C512   1.408       .  A
C511        C518   1.519       .  S
C512        C513   1.405       .  A
C512        H517   1.083       .  S
C513        C514   1.426       .  A
C514        C515   1.519       .  S
C515        F519   1.385       .  S
C515        F520   1.382       .  S
C515        F521   1.384       .  S
C518        F522   1.382       .  S
C518        F523   1.383       .  S
C518        F524   1.384       .  S
C525        C526   1.401       .  A
C525        C530   1.412       .  A
C525        H532   1.083       .  S
C526        C527   1.416       .  A
C527        C528   1.403       .  A
C527        C534   1.523       .  S
C528        C529   1.408       .  A
C528        H533   1.083       .  S
C529        C530   1.425       .  A
C530        C531   1.519       .  S
C531        F535   1.384       .  S
C531        F536   1.383       .  S
C531        F537   1.383       .  S
C534        F538   1.382       .  S
C534        F539   1.384       .  S
C534        F540   1.384       .  S
C541        C542   1.405       .  A
C541        C546   1.402       .  A
C541        H548   1.083       .  S
C542        C543   1.419       .  A
C543        C544   1.412       .  A
C543        C550   1.517       .  S
C544        C545   1.405       .  A
C544        H549   1.083       .  S
C545        C546   1.417       .  A
C546        C547   1.521       .  S
C547        F551   1.385       .  S
C547        F552   1.382       .  S
C547        F553   1.384       .  S
C550        F554   1.380       .  S
C550        F555   1.384       .  S
C550        F556   1.385       .  S
C557        C558   1.407       .  A
C557        C562   1.405       .  A
C557        H564   1.083       .  S
C558        C559   1.419       .  A
C559        C560   1.411       .  A
C559        C566   1.517       .  S
C560        C561   1.405       .  A
C560        H565   1.083       .  S
C561        C562   1.417       .  A
C562        C563   1.520       .  S
C563        F567   1.385       .  S
C563        F568   1.384       .  S
C563        F569   1.382       .  S
C566        F570   1.384       .  S
C566        F571   1.382       .  S
C566        F572   1.385       .  S
C573        C574   1.402       .  A
C573        C578   1.401       .  A
C573        H580   1.079       .  S
C574        C575   1.427       .  A
C575        C576   1.405       .  A
C575        C582   1.523       .  S
C576        C577   1.401       .  A
C576        H581   1.083       .  S
C577        C578   1.419       .  A
C578        C579   1.522       .  S
C579        F583   1.385       .  S
C579        F584   1.384       .  S
C579        F585   1.383       .  S
C582        F586   1.383       .  S
C582        F587   1.383       .  S
C582        F588   1.386       .  S
C589        C590   1.404       .  A
C589        C594   1.402       .  A
C589        H596   1.083       .  S
C590        C591   1.415       .  A
C591        C592   1.403       .  A
C591        C598   1.519       .  S
C592        C593   1.402       .  A
C592        H597   1.083       .  S
C593        C594   1.413       .  A
C594        C595   1.519       .  S
C595        F599   1.385       .  S
C595        F600   1.382       .  S
C595        F601   1.384       .  S
C598        F602   1.383       .  S
C598        F603   1.382       .  S
C598        F604   1.385       .  S
C605        C606   1.404       .  A
C605        C610   1.412       .  A
C605        H612   1.084       .  S
C606        C607   1.409       .  A
C607        C608   1.399       .  A
C607        C614   1.517       .  S
C608        C609   1.409       .  A
C608        H613   1.080       .  S
C609        C610   1.426       .  A
C610        C611   1.521       .  S
C611        F615   1.385       .  S
C611        F616   1.384       .  S
C611        F617   1.382       .  S
C614        F618   1.383       .  S
C614        F619   1.382       .  S
C614        F620   1.385       .  S
C621        C622   1.399       .  A
C621        C626   1.410       .  A
C621        H628   1.083       .  S
C622        C623   1.416       .  A
C623        C624   1.405       .  A
C623        C630   1.520       .  S
C624        C625   1.405       .  A
C624        H629   1.083       .  S
C625        C626   1.424       .  A
C626        C627   1.519       .  S
C627        F631   1.385       .  S
C627        F632   1.384       .  S
C627        F633   1.381       .  S
C630        F634   1.384       .  S
C630        F635   1.382       .  S
C630        F636   1.385       .  S
C637        C638   1.399       .  A
C637        C642   1.405       .  A
C637        H644   1.083       .  S
C638        C639   1.418       .  A
C639        C640   1.400       .  A
C639        C646   1.522       .  S
C640        C641   1.400       .  A
C640        H645   1.082       .  S
C641        C642   1.422       .  A
C642        C643   1.521       .  S
C643        F647   1.385       .  S
C643        F648   1.384       .  S
C643        F649   1.383       .  S
C646        F650   1.382       .  S
C646        F651   1.384       .  S
C646        F652   1.385       .  S
C653        C654   1.405       .  A
C653        C658   1.404       .  A
C653        H660   1.084       .  S
C654        C655   1.414       .  A
C655        C656   1.403       .  A
C655        C662   1.518       .  S
C656        C657   1.403       .  A
C656        H661   1.083       .  S
C657        C658   1.415       .  A
C658        C659   1.520       .  S
C659        F663   1.385       .  S
C659        F664   1.382       .  S
C659        F665   1.384       .  S
C662        F666   1.383       .  S
C662        F667   1.382       .  S
C662        F668   1.385       .  S
C669        C670   1.398       .  A
C669        C674   1.410       .  A
C669        H676   1.083       .  S
C670        C671   1.410       .  A
C671        C672   1.406       .  A
C671        C678   1.519   1_545  S
C672        C673   1.413       .  A
C672        H677   1.082       .  S
C673        C674   1.430       .  A
C674        C675   1.519       .  S
C675        F679   1.385       .  S
C675        F680   1.383       .  S
C675        F681   1.383       .  S
C678        F682   1.383       .  S
C678        F683   1.382       .  S
C678        F684   1.384       .  S
C685        C686   1.400       .  A
C685        C690   1.408       .  A
C685        H692   1.083       .  S
C686        C687   1.416       .  A
C687        C688   1.403       .  A
C687        C694   1.520       .  S
C688        C689   1.406       .  A
C688        H693   1.083       .  S
C689        C690   1.427       .  A
C690        C691   1.521       .  S
C691        F695   1.385       .  S
C691        F696   1.383       .  S
C691        F697   1.383       .  S
C694        F698   1.383       .  S
C694        F699   1.381       .  S
C694        F700   1.384       .  S
C701        C702   1.412       .  A
C701        C706   1.410       .  A
C701        H708   1.082       .  S
C702        C703   1.432       .  A
C703        C704   1.414       .  A
C703        C710   1.522       .  S
C704        C705   1.401       .  A
C704        H709   1.083       .  S
C705        C706   1.413       .  A
C706        C707   1.518       .  S
C707        F711   1.385       .  S
C707        F712   1.383       .  S
C707        F713   1.382       .  S
C710        F714   1.383       .  S
C710        F715   1.383       .  S
C710        F716   1.385       .  S
C717        C718   1.401       .  A
C717        C722   1.407       .  A
C717        H724   1.083       .  S
C718        C719   1.413       .  A
C719        C720   1.408       .  A
C719        C726   1.517       .  S
C720        C721   1.409       .  A
C720        H725   1.082       .  S
C721        C722   1.426       .  A
C722        C723   1.522       .  S
C723        F727   1.385       .  S
C723        F728   1.383       .  S
C723        F729   1.384       .  S
C726        F730   1.382       .  S
C726        F731   1.383       .  S
C726        F732   1.385       .  S
C733        C734   1.404       .  A
C733        C738   1.413       .  A
C733        H740   1.083       .  S
C734        C735   1.421       .  A
C735        C736   1.406       .  A
C735        C742   1.518       .  S
C736        C737   1.403       .  A
C736        H741   1.084       .  S
C737        C738   1.423       .  A
C738        C739   1.519       .  S
C739        F743   1.385       .  S
C739        F744   1.381       .  S
C739        F745   1.384       .  S
C742        F746   1.382       .  S
C742        F747   1.382       .  S
C742        F748   1.384       .  S
C749        C750   1.408       .  A
C749        C754   1.408       .  A
C749        H756   1.082       .  S
C750        C751   1.420       .  A
C751        C752   1.404       .  A
C751        C758   1.520       .  S
C752        C753   1.403       .  A
C752        H757   1.083       .  S
C753        C754   1.416       .  A
C754        C755   1.520   1_655  S
C755        F759   1.385       .  S
C755        F760   1.383       .  S
C755        F761   1.381       .  S
C758        F762   1.384       .  S
C758        F763   1.383       .  S
C758        F764   1.384       .  S
C765        C766   1.402       .  A
C765        C770   1.410       .  A
C765        H772   1.083   1_545  S
C766        C767   1.416       .  A
C767        C768   1.408       .  A
C767        C774   1.519       .  S
C768        C769   1.412       .  A
C768        H773   1.084       .  S
C769        C770   1.426       .  A
C770        C771   1.516   1_545  S
C771        F775   1.385       .  S
C771        F776   1.382       .  S
C771        F777   1.382   1_565  S
C774        F778   1.384       .  S
C774        F779   1.381       .  S
C774        F780   1.382       .  S
C781        C782   1.398       .  A
C781        C786   1.406       .  A
C781        H788   1.083       .  S
C782        C783   1.414       .  A
C783        C784   1.405       .  A
C783        C790   1.520       .  S
C784        C785   1.408       .  A
C784        H789   1.083       .  S
C785        C786   1.425       .  A
C786        C787   1.520       .  S
C787        F791   1.385       .  S
C787        F792   1.383       .  S
C787        F793   1.383       .  S
C790        F794   1.380       .  S
C790        F795   1.383       .  S
C790        F796   1.384       .  S
C797        C798   1.401       .  A
C797        C802   1.411       .  A
C797        H804   1.083       .  S
C798        C799   1.412       .  A
C799        C800   1.406       .  A
C799        C806   1.518   1_545  S
C800        C801   1.410       .  A
C800        H805   1.082       .  S
C801        C802   1.425       .  A
C802        C803   1.519       .  S
C803        F807   1.386       .  S
C803        F808   1.382       .  S
C803        F809   1.382       .  S
C806        F810   1.382       .  S
C806        F811   1.383       .  S
C806        F812   1.385       .  S
C813        C814   1.399       .  A
C813        C818   1.403       .  A
C813        H820   1.084       .  S
C814        C815   1.414       .  A
C815        C816   1.407       .  A
C815        C822   1.517       .  S
C816        C817   1.407       .  A
C816        H821   1.084       .  S
C817        C818   1.427       .  A
C818        C819   1.523       .  S
C819        F823   1.385       .  S
C819        F824   1.382       .  S
C819        F825   1.383       .  S
C822        F826   1.381       .  S
C822        F827   1.382       .  S
C822        F828   1.384       .  S
C829        C830   1.414       .  A
C829        C834   1.408       .  A
C829        H836   1.082       .  S
C830        C831   1.427       .  A
C831        C832   1.407       .  A
C831        C838   1.520       .  S
C832        C833   1.398       .  A
C832        H837   1.083       .  S
C833        C834   1.411       .  A
C834        C835   1.520       .  S
C835        F839   1.385       .  S
C835        F840   1.382       .  S
C835        F841   1.383       .  S
C838        F842   1.382       .  S
C838        F843   1.384       .  S
C838        F844   1.385       .  S
C845        C846   1.402       .  A
C845        C850   1.403       .  A
C845        H852   1.082       .  S
C846        C847   1.420       .  A
C847        C848   1.405       .  A
C847        C854   1.521       .  S
C848        C849   1.404       .  A
C848        H853   1.081       .  S
C849        C850   1.425       .  A
C850        C851   1.522       .  S
C851        F855   1.385       .  S
C851        F856   1.383       .  S
C851        F857   1.383       .  S
C854        F858   1.384       .  S
C854        F859   1.384       .  S
C854        F860   1.382       .  S
C861        C862   1.413       .  A
C861        C866   1.404       .  A
C861        H868   1.080       .  S
C862        C863   1.433       .  A
C863        C864   1.415       .  A
C863        C870   1.521       .  S
C864        C865   1.400       .  A
C864        H869   1.083       .  S
C865        C866   1.410       .  A
C866        C867   1.520   1_545  S
C867        F871   1.385       .  S
C867        F872   1.383       .  S
C867        F873   1.382       .  S
C870        F874   1.383       .  S
C870        F875   1.382       .  S
C870        F876   1.385       .  S
C877        C878   1.406       .  A
C877        C882   1.412       .  A
C877        H884   1.082       .  S
C878        C879   1.422       .  A
C879        C880   1.403       .  A
C879        C886   1.524       .  S
C880        C881   1.404       .  A
C880        H885   1.083       .  S
C881        C882   1.419       .  A
C882        C883   1.518       .  S
C883        F887   1.385       .  S
C883        F888   1.384       .  S
C883        F889   1.382       .  S
C886        F890   1.384       .  S
C886        F891   1.382       .  S
C886        F892   1.385       .  S
C893        C894   1.398       .  A
C893        C898   1.407       .  A
C893        H900   1.083       .  S
C894        C895   1.412       .  A
C895        C896   1.405       .  A
C895        C902   1.519       .  S
C896        C897   1.409       .  A
C896        H901   1.081       .  S
C897        C898   1.430       .  A
C898        C899   1.523       .  S
C899        F903   1.385       .  S
C899        F904   1.384       .  S
C899        F905   1.383       .  S
C902        F906   1.383       .  S
C902        F907   1.380   1_554  S
C902        F908   1.384       .  S
C909        C910   1.399       .  A
C909        C914   1.400       .  A
C909        H916   1.084       .  S
C910        C911   1.418       .  A
C911        C912   1.404       .  A
C911        C918   1.519       .  S
C912        C913   1.399       .  A
C912        H917   1.083       .  S
C913        C914   1.418       .  A
C914        C915   1.522       .  S
C915        F919   1.385       .  S
C915        F920   1.382       .  S
C915        F921   1.384       .  S
C918        F922   1.383       .  S
C918        F923   1.382       .  S
C918        F924   1.385       .  S
C925        C926   1.395       .  A
C925        C930   1.408       .  A
C925        H932   1.084       .  S
C926        C927   1.413       .  A
C927        C928   1.404       .  A
C927        C934   1.521       .  S
C928        C929   1.409       .  A
C928        H933   1.082       .  S
C929        C930   1.432       .  A
C930        C931   1.522       .  S
C931        F935   1.385       .  S
C931        F936   1.384       .  S
C931        F937   1.384       .  S
C934        F938   1.383       .  S
C934        F939   1.383   1_545  S
C934        F940   1.384       .  S
C941        C942   1.403       .  A
C941        C946   1.407       .  A
C941        H948   1.083       .  S
C942        C943   1.418       .  A
C943        C944   1.402       .  A
C943        C950   1.520       .  S
C944        C945   1.397       .  A
C944        H949   1.085       .  S
C945        C946   1.413       .  A
C946        C947   1.518       .  S
C947        F951   1.384       .  S
C947        F952   1.384       .  S
C947        F953   1.383       .  S
C950        F954   1.381       .  S
C950        F955   1.383       .  S
C950        F956   1.383       .  S
C957        C958   1.404       .  A
C957        C962   1.404       .  A
C957        H964   1.083       .  S
C958        C959   1.414       .  A
C959        C960   1.413       .  A
C959        C966   1.516       .  S
C960        C961   1.407       .  A
C960        H965   1.083       .  S
C961        C962   1.418       .  A
C962        C963   1.521       .  S
C963        F967   1.385       .  S
C963        F968   1.383       .  S
C963        F969   1.382       .  S
C966        F970   1.383       .  S
C966        F971   1.383       .  S
C966        F972   1.384       .  S
C973        C974   1.409       .  A
C973        C978   1.401       .  A
C973        H980   1.082       .  S
C974        C975   1.418       .  A
C975        C976   1.407       .  A
C975        C982   1.520       .  S
C976        C977   1.408       .  A
C976        H981   1.082       .  S
C977        C978   1.417       .  A
C978        C979   1.521       .  S
C979        F983   1.385       .  S
C979        F984   1.383       .  S
C979        F985   1.383       .  S
C982        F986   1.383       .  S
C982        F987   1.382       .  S
C982        F988   1.385       .  S
C989        C990   1.402       .  A
C989        C994   1.414       .  A
C989        H996   1.083       .  S
C990        C991   1.411       .  A
C991        C992   1.406       .  A
C991        C998   1.519   1_655  S
C992        C993   1.412       .  A
C992        H997   1.082       .  S
C993        C994   1.426       .  A
C994        C995   1.518       .  S
C995        F999   1.385       .  S
C995       F1000   1.383       .  S
C995       F1001   1.383       .  S
C998       F1002   1.382       .  S
C998       F1003   1.383       .  S
C998       F1004   1.384       .  S
C1005      C1006   1.406       .  A
C1005      C1010   1.407       .  A
C1005      H1012   1.083       .  S
C1006      C1007   1.416       .  A
C1007      C1008   1.404       .  A
C1007      C1014   1.520       .  S
C1008      C1009   1.405       .  A
C1008      H1013   1.082       .  S
C1009      C1010   1.417       .  A
C1010      C1011   1.521       .  S
C1011      F1015   1.384       .  S
C1011      F1016   1.383       .  S
C1011      F1017   1.384       .  S
C1014      F1018   1.384       .  S
C1014      F1019   1.383       .  S
C1014      F1020   1.384       .  S
C1021      C1022   1.403       .  A
C1021      C1026   1.409       .  A
C1021      H1028   1.082       .  S
C1022      C1023   1.427       .  A
C1023      C1024   1.404       .  A
C1023      C1030   1.521       .  S
C1024      C1025   1.399       .  A
C1024      H1029   1.083       .  S
C1025      C1026   1.426       .  A
C1026      C1027   1.522       .  S
C1027      F1031   1.385       .  S
C1027      F1032   1.383       .  S
C1027      F1033   1.383       .  S
C1030      F1034   1.383       .  S
C1030      F1035   1.383       .  S
C1030      F1036   1.385       .  S
C1037      C1038   1.406       .  A
C1037      C1042   1.409       .  A
C1037      H1044   1.083       .  S
C1038      C1039   1.423       .  A
C1039      C1040   1.410       .  A
C1039      C1046   1.519       .  S
C1040      C1041   1.400       .  A
C1040      H1045   1.083       .  S
C1041      C1042   1.417       .  A
C1042      C1043   1.521       .  S
C1043      F1047   1.384       .  S
C1043      F1048   1.383       .  S
C1043      F1049   1.379       .  S
C1046      F1050   1.384       .  S
C1046      F1051   1.382       .  S
C1046      F1052   1.384       .  S
C1053      C1054   1.410       .  A
C1053      C1058   1.410       .  A
C1053      H1060   1.083       .  S
C1054      C1055   1.425       .  A
C1055      C1056   1.409       .  A
C1055      C1062   1.522       .  S
C1056      C1057   1.401       .  A
C1056      H1061   1.083       .  S
C1057      C1058   1.411       .  A
C1058      C1059   1.517       .  S
C1059      F1063   1.384       .  S
C1059      F1064   1.384       .  S
C1059      F1065   1.382       .  S
C1062      F1066   1.384       .  S
C1062      F1067   1.383       .  S
C1062      F1068   1.385       .  S
C1069      C1070   1.406       .  A
C1069      C1074   1.402       .  A
C1069      H1076   1.083       .  S
C1070      C1071   1.422       .  A
C1071      C1072   1.413       .  A
C1071      C1078   1.518       .  S
C1072      C1073   1.407       .  A
C1072      H1077   1.084       .  S
C1073      C1074   1.418       .  A
C1074      C1075   1.519       .  S
C1075      F1079   1.385       .  S
C1075      F1080   1.383       .  S
C1075      F1081   1.382       .  S
C1078      F1082   1.381       .  S
C1078      F1083   1.382       .  S
C1078      F1084   1.384       .  S
C1085      C1086   1.405       .  A
C1085      C1090   1.409       .  A
C1085      H1092   1.083       .  S
C1086      C1087   1.423       .  A
C1087      C1088   1.404       .  A
C1087      C1094   1.520       .  S
C1088      C1089   1.402       .  A
C1088      H1093   1.085       .  S
C1089      C1090   1.420       .  A
C1090      C1091   1.519       .  S
C1091      F1095   1.385       .  S
C1091      F1096   1.384       .  S
C1091      F1097   1.381       .  S
C1094      F1098   1.384       .  S
C1094      F1099   1.381   1_554  S
C1094      F1100   1.383   1_554  S
C1101      C1102   1.403       .  A
C1101      C1106   1.401       .  A
C1101      H1108   1.082       .  S
C1102      C1103   1.420       .  A
C1103      C1104   1.411       .  A
C1103      C1110   1.519       .  S
C1104      C1105   1.405       .  A
C1104      H1109   1.083       .  S
C1105      C1106   1.416       .  A
C1106      C1107   1.519       .  S
C1107      F1111   1.385       .  S
C1107      F1112   1.384       .  S
C1107      F1113   1.382       .  S
C1110      F1114   1.383       .  S
C1110      F1115   1.381       .  S
C1110      F1116   1.385       .  S
C1117      C1118   1.411       .  A
C1117      C1122   1.404       .  A
C1117      H1124   1.081       .  S
C1118      C1119   1.431       .  A
C1119      C1120   1.410       .  A
C1119      C1126   1.520       .  S
C1120      C1121   1.396       .  A
C1120      H1125   1.084       .  S
C1121      C1122   1.412       .  A
C1122      C1123   1.520       .  S
C1123      F1127   1.385       .  S
C1123      F1128   1.382       .  S
C1123      F1129   1.383       .  S
C1126      F1130   1.383       .  S
C1126      F1131   1.381       .  S
C1126      F1132   1.385       .  S
C1133      C1134   1.403       .  A
C1133      C1138   1.406       .  A
C1133      H1140   1.083       .  S
C1134      C1135   1.417       .  A
C1135      C1136   1.406       .  A
C1135      C1142   1.520       .  S
C1136      C1137   1.404       .  A
C1136      H1141   1.082       .  S
C1137      C1138   1.419       .  A
C1138      C1139   1.519       .  S
C1139      F1143   1.385       .  S
C1139      F1144   1.384       .  S
C1139      F1145   1.382       .  S
C1142      F1146   1.383   1_655  S
C1142      F1147   1.381       .  S
C1142      F1148   1.385       .  S
C1149      C1150   1.401       .  A
C1149      C1154   1.404       .  A
C1149      H1156   1.083       .  S
C1150      C1151   1.420       .  A
C1151      C1152   1.407       .  A
C1151      C1158   1.520       .  S
C1152      C1153   1.402       .  A
C1152      H1157   1.083       .  S
C1153      C1154   1.419       .  A
C1154      C1155   1.520       .  S
C1155      F1159   1.385       .  S
C1155      F1160   1.382       .  S
C1155      F1161   1.384       .  S
C1158      F1162   1.384       .  S
C1158      F1163   1.384       .  S
C1158      F1164   1.382       .  S
C1165      C1166   1.404       .  A
C1165      C1170   1.404       .  A
C1165      H1172   1.083       .  S
C1166      C1167   1.417       .  A
C1167      C1168   1.404       .  A
C1167      C1174   1.520       .  S
C1168      C1169   1.404       .  A
C1168      H1173   1.083       .  S
C1169      C1170   1.417       .  A
C1170      C1171   1.519       .  S
C1171      F1175   1.385       .  S
C1171      F1176   1.384       .  S
C1171      F1177   1.382       .  S
C1174      F1178   1.383       .  S
C1174      F1179   1.383       .  S
C1174      F1180   1.385       .  S
