geometry optimzed in LAMMPS
_audit_creation_date              2020-11-30 
_audit_creation_method            'lammps2cif' 
_symmetry_space_group_name_H-M    'P1' 
_symmetry_Int_Tables_number       1 
_symmetry_cell_setting            triclinic 
loop_ 
_symmetry_equiv_pos_as_xyz 
  x,y,z 
_cell_length_a                    42.85894125591721 
_cell_length_b                    42.86042843225579 
_cell_length_c                    16.06515406436712 
_cell_angle_alpha                 89.3392191123399 
_cell_angle_beta                  89.74336235084843 
_cell_angle_gamma                 90.07475307029932 
loop_ 
_atom_site_label 
_atom_site_type_symbol 
_atom_site_fract_x 
_atom_site_fract_y 
_atom_site_fract_z 
_atom_site_charge 
O1          O  0.38708491  0.68529928  0.33168254    -0.72900
O2          O  0.39118743  0.59849717  0.05247049    -0.73120
O3          O  0.43315095  0.64441359  0.36152945    -0.72980
O4          O  0.34520317  0.63939427  0.35775497    -0.72990
O5          O  0.34660474  0.63452393  0.22329281    -0.72950
O6          O  0.43543618  0.62826796  0.23403670    -0.72970
O7          O  0.38721612  0.58845971  0.25403812    -0.72910
O8          O  0.39466502  0.67419878  0.20156935    -0.73100
V9          V  0.38923699  0.64176076  0.35685728     1.35240
V10         V  0.39096503  0.63152051  0.23053917     1.35170
C11         C  0.39114072  0.69447275  0.25712800     0.76340
C12         C  0.38844956  0.57869961  0.32840750     0.76390
C13         C  0.44944051  0.63638541  0.29966834     0.76260
C14         C  0.33081461  0.63685938  0.28982611     0.76220
O15         O  0.39263750  0.83341667  0.08908948    -0.72900
O16         O  0.39126123  0.91996552  0.03117166    -0.73120
O17         O  0.43575420  0.87705268  0.05874806    -0.72980
O18         O  0.34773854  0.87582250  0.06009393    -0.72990
O19         O  0.34740291  0.88833350  0.19072082    -0.72950
O20         O  0.43647830  0.88821736  0.19023736    -0.72970
O21         O  0.39165071  0.93097816  0.16284210    -0.72910
O22         O  0.39153966  0.84535997  0.22012549    -0.73100
V23         V  0.39185420  0.87679945  0.06233182     1.35240
V24         V  0.39183992  0.88798969  0.18844768     1.35170
C25         C  0.39206934  0.82475577  0.16469351     0.76340
C26         C  0.39079624  0.94018484  0.08799990     0.76390
C27         C  0.45123420  0.88242374  0.12366964     0.76260
C28         C  0.33245328  0.88211187  0.12509949     0.76220
O29         O  0.13628510  0.68662379  0.25716765    -0.72900
O30         O  0.13777121  0.60023105  0.20134088    -0.73120
O31         O  0.09323403  0.64314276  0.22707486    -0.72980
O32         O  0.18124462  0.64421598  0.22970383    -0.72990
O33         O  0.18091509  0.63114166  0.02737713    -0.72950
O34         O  0.09174146  0.63118829  0.35873642    -0.72970
O35         O  0.13681091  0.58851166  0.33324067    -0.72910
O36         O  0.13659128  0.67399486  0.05514701    -0.73100
V37         V  0.13711690  0.64330513  0.23140124     1.35240
V38         V  0.13644834  0.63146160  0.02443607     1.35170
C39         C  0.13649091  0.69493181  0.99926145     0.76340
C40         C  0.13793639  0.57966677  0.25862394     0.76390
C41         C  0.07735350  0.63733026  0.29174304     0.76260
C42         C  0.19621267  0.63765723  0.29507566     0.76220
O43         O  0.14198706  0.83381731  0.16338325    -0.72900
O44         O  0.13729665  0.92043283  0.21604299    -0.73120
O45         O  0.09571650  0.87433896  0.19334328    -0.72980
O46         O  0.18355172  0.87989631  0.18803820    -0.72990
O47         O  0.18229641  0.88550401  0.05347124    -0.71990
O48         O  0.09346158  0.89126273  0.06559621    -0.72970
O49         O  0.14141007  0.93125891  0.08403486    -0.72910
O50         O  0.13443633  0.84566490  0.03323584    -0.73100
V51         V  0.13957171  0.87727189  0.18786075     1.35240
V52         V  0.13792515  0.88825025  0.06138606     1.35170
C53         C  0.13796369  0.82503250  0.08907635     0.76340
C54         C  0.13992023  0.94062586  0.15821479     0.76390
C55         C  0.07945879  0.88269770  0.13166107     0.76260
C56         C  0.19799851  0.88288039  0.11983933     0.76220
O57         O  0.33794315  0.38504074  0.00762883    -0.72900
O58         O  0.42452502  0.38615525  0.95232778    -0.73120
O59         O  0.38224133  0.34144793  0.98189556    -0.72980
O60         O  0.38021713  0.42946133  0.97648804    -0.72990
O61         O  0.39137394  0.43102873  0.10812076    -0.72950
O62         O  0.39352763  0.34204710  0.11368281    -0.72970
O63         O  0.43541827  0.38787238  0.08413728    -0.72910
O64         O  0.34960631  0.38523158  0.13909736    -0.73100
V65         V  0.38140805  0.38552596  0.98220438     1.35240
V66         V  0.39229275  0.38649120  0.10870988     1.35170
C67         C  0.32911508  0.38499584  0.08297104     0.76340
C68         C  0.44470347  0.38755642  0.00942411     0.76390
C69         C  0.38831119  0.32671842  0.04826893     0.76260
C70         C  0.38537982  0.44533906  0.04068403     0.76220
O71         O  0.18950461  0.38307747  0.24775994    -0.72900
O72         O  0.10268537  0.38857320  0.29993412    -0.73120
O73         O  0.14296739  0.34192016  0.27370063    -0.72980
O74         O  0.14926388  0.42984747  0.27590835    -0.72990
O75         O  0.13309902  0.43237972  0.14812487    -0.72950
O76         O  0.13829503  0.34344645  0.13908625    -0.72970
O77         O  0.09267016  0.38466473  0.16802818    -0.72910
O78         O  0.17855615  0.39095441  0.11733497    -0.73100
V79         V  0.14596349  0.38594875  0.27200064     1.35240
V80         V  0.13580547  0.38784785  0.14545251     1.35170
C81         C  0.19876947  0.38692844  0.17328482     0.76340
C82         C  0.08286853  0.38610711  0.24212629     0.76390
C83         C  0.14048409  0.32758218  0.20589758     0.76260
C84         C  0.14136086  0.44627309  0.21370276     0.76220
O85         O  0.33858154  0.13218476  0.07900146    -0.72900
O86         O  0.42506944  0.13321041  0.13494248    -0.73120
O87         O  0.38120959  0.17692141  0.10690967    -0.72980
O88         O  0.38198024  0.08894878  0.10858110    -0.72990
O89         O  0.39361251  0.08845668  0.97690405    -0.72950
O90         O  0.39400010  0.17756607  0.30927252    -0.72970
O91         O  0.43648101  0.13320900  0.00305333    -0.72910
O92         O  0.35090958  0.13346954  0.28104480    -0.73100
V93         V  0.38195042  0.13283004  0.10478263     1.35240
V94         V  0.39350426  0.13310318  0.97842935     1.35170
C95         C  0.33011138  0.13284155  0.00357707     0.76340
C96         C  0.44549298  0.13372323  0.07771042     0.76390
C97         C  0.38771010  0.19236141  0.04172476     0.76260
C98         C  0.38757557  0.07358439  0.04370347     0.76220
O99         O  0.19151183  0.13573801  0.17014939    -0.72900
O100        O  0.10498292  0.13343462  0.11443429    -0.73120
O101        O  0.14713492  0.17854318  0.14348949    -0.72980
O102        O  0.14985846  0.09054234  0.13937794    -0.72990
O103        O  0.13494448  0.08797090  0.26860660    -0.72950
O104        O  0.13783115  0.17704303  0.27648194    -0.72970
O105        O  0.09375968  0.13467357  0.24633837    -0.72910
O106        O  0.17928329  0.13047007  0.30089815    -0.73100
V107        V  0.14814276  0.13447198  0.14436251     1.35240
V108        V  0.13669641  0.13256120  0.27062235     1.35170
C109        C  0.20005370  0.13297583  0.24526997     0.76340
C110        C  0.08463776  0.13468101  0.17175182     0.76390
C111        C  0.14239937  0.19292753  0.21044533     0.76260
C112        C  0.14254067  0.07411927  0.20226482     0.76220
O113        O  0.63391995  0.33317453  0.33162688    -0.72900
O114        O  0.63938251  0.41963921  0.05172817    -0.73120
O115        O  0.59290432  0.37926935  0.36101605    -0.72980
O116        O  0.68085375  0.37367673  0.35759611    -0.72990
O117        O  0.68137212  0.38826876  0.22768906    -0.72950
O118        O  0.59237347  0.38802087  0.22749007    -0.72970
O119        O  0.63718552  0.43095600  0.25305258    -0.72910
O120        O  0.63725539  0.34526745  0.20023634    -0.73100
V121        V  0.63676711  0.37657211  0.35628661     1.35240
V122        V  0.63696878  0.38787351  0.22961899     1.35170
C123        C  0.63543977  0.32455478  0.25651152     0.76340
C124        C  0.63901431  0.44001975  0.32738589     0.76390
C125        C  0.57761886  0.38458811  0.29546848     0.76260
C126        C  0.69624222  0.38084159  0.29291628     0.76220
O127        O  0.63991718  0.18600610  0.09202984    -0.72900
O128        O  0.63847013  0.09956500  0.03672606    -0.73120
O129        O  0.59519134  0.14396160  0.06091156    -0.72980
O130        O  0.68317449  0.14213105  0.06615623    -0.72990
O131        O  0.68190905  0.13261757  0.19920744    -0.72950
O132        O  0.59285753  0.12875048  0.19016313    -0.72970
O133        O  0.64000788  0.08806217  0.16866439    -0.72910
O134        O  0.63484117  0.17350902  0.22278134    -0.73100
V135        V  0.63911213  0.14267333  0.06646201     1.35240
V136        V  0.63743004  0.13097061  0.19275262     1.35170
C137        C  0.63702714  0.19440617  0.16703069     0.76340
C138        C  0.63994074  0.07909141  0.09409467     0.76390
C139        C  0.57888958  0.13641531  0.12364913     0.76260
C140        C  0.69767629  0.13749957  0.13333664     0.76220
O141        O  0.88696501  0.33385387  0.25675146    -0.72900
O142        O  0.89143671  0.42052225  0.20092311    -0.73120
O143        O  0.93317769  0.37466941  0.22573509    -0.72980
O144        O  0.84528270  0.37964594  0.23019796    -0.72990
O145        O  0.84639944  0.38478581  0.03125744    -0.72950
O146        O  0.93521719  0.39116408  0.35289273    -0.72970
O147        O  0.88715649  0.43084630  0.33255389    -0.72910
O148        O  0.89435184  0.34527109  0.05328353    -0.73100
V149        V  0.88928741  0.37731766  0.23073070     1.35240
V150        V  0.89076923  0.38786604  0.02354526     1.35170
C151        C  0.89084563  0.32486259  0.33142369     0.76340
C152        C  0.88865801  0.44045150  0.25803089     0.76390
C153        C  0.94933425  0.38290132  0.28728179     0.76260
C154        C  0.83075519  0.38223392  0.29822963     0.76220
O155        O  0.89048561  0.18566509  0.16598780    -0.72900
O156        O  0.89250615  0.09887165  0.22068671    -0.73120
O157        O  0.93531513  0.14370943  0.19392280    -0.72980
O158        O  0.84724221  0.14088748  0.19443469    -0.72990
O159        O  0.84747835  0.13290467  0.06106850    -0.72950
O160        O  0.93657480  0.13025965  0.06406012    -0.72970
O161        O  0.89026346  0.08856994  0.08874838    -0.72910
O162        O  0.89309840  0.17439631  0.03460057    -0.73100
V163        V  0.89140048  0.14211409  0.19121211     1.35240
V164        V  0.89191716  0.13169337  0.06464775     1.35170
C165        C  0.89167912  0.19468915  0.09068415     0.76340
C166        C  0.89083677  0.07896503  0.16330596     0.76390
C167        C  0.95108853  0.13722212  0.12989201     0.76260
C168        C  0.83228556  0.13681024  0.12793980     0.76220
O169        O  0.68976261  0.63658347  0.00446015    -0.72900
O170        O  0.60301161  0.63127832  0.28566798    -0.73120
O171        O  0.64338869  0.67786761  0.97899035    -0.72980
O172        O  0.64944900  0.58995965  0.97576064    -0.72990
O173        O  0.63296364  0.58723131  0.10362703    -0.72950
O174        O  0.63821384  0.67616191  0.11358058    -0.72970
O175        O  0.59260763  0.63492598  0.08429978    -0.72910
O176        O  0.67834138  0.62860181  0.13482354    -0.73100
V177        V  0.64624972  0.63383995  0.98021104     1.35240
V178        V  0.63568664  0.63175733  0.10675989     1.35170
C179        C  0.69877479  0.63250937  0.07887625     0.76340
C180        C  0.58300907  0.63360143  0.01021550     0.76390
C181        C  0.64064372  0.69211554  0.04690860     0.76260
C182        C  0.64144460  0.57344305  0.03791229     0.76220
O183        O  0.83714207  0.63242182  0.24584711    -0.72900
O184        O  0.92344982  0.63387204  0.30349378    -0.73120
O185        O  0.87954543  0.67734263  0.27363601    -0.72980
O186        O  0.88055371  0.58940673  0.27723082    -0.72990
O187        O  0.89242644  0.58855186  0.14572398    -0.72950
O188        O  0.89275061  0.67764044  0.14294925    -0.72970
O189        O  0.93519292  0.63341883  0.17182742    -0.72910
O190        O  0.84977885  0.63344849  0.11475700    -0.73100
V191        V  0.88041751  0.63326535  0.27247540     1.35240
V192        V  0.89229158  0.63319536  0.14633612     1.35170
C193        C  0.82885452  0.63289397  0.17027237     0.76340
C194        C  0.94401255  0.63426044  0.24662907     0.76390
C195        C  0.88622184  0.69260376  0.20829138     0.76260
C196        C  0.88626300  0.57386890  0.21273525     0.76220
O197        O  0.69145888  0.88404299  0.08183678    -0.72900
O198        O  0.60492589  0.88637265  0.13860197    -0.73120
O199        O  0.64699761  0.84125028  0.10933940    -0.72980
O200        O  0.64991424  0.92928577  0.11275848    -0.72990
O201        O  0.63526854  0.93171983  0.98365451    -0.72950
O202        O  0.63786950  0.84262541  0.30980817    -0.72970
O203        O  0.59392913  0.88506581  0.00681685    -0.72910
O204        O  0.67947236  0.88912645  0.28449258    -0.73100
V205        V  0.64809828  0.88533550  0.10814034     1.35240
V206        V  0.63686775  0.88711783  0.31532363     1.35170
C207        C  0.70011544  0.88664819  0.00658505     0.76340
C208        C  0.58469890  0.88506414  0.08150769     0.76390
C209        C  0.64233299  0.82680056  0.04253599     0.76260
C210        C  0.64278572  0.94564667  0.04979574     0.76220
O211        O  0.83930867  0.88522496  0.17354775    -0.72900
O212        O  0.92615955  0.88720270  0.12070596    -0.73120
O213        O  0.88393699  0.84201431  0.14739326    -0.72980
O214        O  0.88148197  0.92993780  0.14511981    -0.72990
O215        O  0.89491585  0.93097410  0.27523676    -0.72950
O216        O  0.89188488  0.84195031  0.28094816    -0.72970
O217        O  0.93645363  0.88467994  0.25290286    -0.72910
O218        O  0.85055612  0.88759279  0.30508745    -0.73100
V219        V  0.88289347  0.88609189  0.14925008     1.35240
V220        V  0.89328848  0.88636250  0.27602736     1.35170
C221        C  0.83025802  0.88636111  0.24862080     0.76340
C222        C  0.94607444  0.88545064  0.17851027     0.76390
C223        C  0.88795938  0.82693895  0.21438126     0.76260
C224        C  0.88802199  0.94556916  0.20878240     0.76220
C225        C  0.75545346  0.87200819  0.03468587    -0.14470
C226        C  0.73341441  0.88665427  0.31661716     0.07680
C227        C  0.74337300  0.90089622  0.24183064    -0.14470
C228        C  0.77491318  0.90068785  0.21923516    -0.14470
C229        C  0.79691822  0.88615068  0.27088046     0.07680
C230        C  0.78697118  0.87188301  0.34552708    -0.14470
H231        H  0.74825245  0.86035567  0.09179058     0.11660
H232        H  0.72682638  0.91254252  0.20135394     0.11660
H233        H  0.78219706  0.91231374  0.16216402     0.11660
H234        H  0.80354467  0.86025944  0.05263829     0.11660
C235        C  0.90068972  0.74418108  0.14447816    -0.14470
C236        C  0.88658200  0.72703017  0.20937789     0.07680
C237        C  0.87327665  0.74306447  0.27666276    -0.14470
C238        C  0.87412506  0.77562708  0.27905520    -0.14470
C239        C  0.88802456  0.79266763  0.21389237     0.07680
C240        C  0.90124944  0.77675855  0.14654088    -0.14470
H241        H  0.91149590  0.73241414  0.09250765     0.11660
H242        H  0.86204712  0.73042648  0.32732740     0.11660
H243        H  0.86335596  0.78753845  0.33086294     0.11660
H244        H  0.91230989  0.78957426  0.09590312     0.11660
C245        C  0.62795166  0.77579798  0.97821008    -0.14470
C246        C  0.64197838  0.79230675  0.04301117     0.07680
C247        C  0.65514037  0.77554937  0.10997517    -0.14470
C248        C  0.65427270  0.74293289  0.11213172    -0.14470
C249        C  0.64042310  0.72649636  0.04711224     0.07680
C250        C  0.62728102  0.74316538  0.98013948    -0.14470
H251        H  0.61723945  0.78811389  0.25986228     0.11660
H252        H  0.66635782  0.78768600  0.16049444     0.11660
H253        H  0.66500055  0.73052660  0.16365987     0.11660
H254        H  0.61622242  0.73089428  0.92958837     0.11660
C255        C  0.74195634  0.61784070  0.17551385    -0.14470
C256        C  0.73216722  0.63232271  0.10112434     0.07680
C257        C  0.75441099  0.64709013  0.04987754    -0.14470
C258        C  0.78590795  0.64722073  0.07238534    -0.14470
C259        C  0.79563103  0.63278708  0.14682619     0.07680
C260        C  0.77341376  0.61801926  0.19802347    -0.14470
H261        H  0.72530247  0.60613429  0.21606486     0.11660
H262        H  0.74738719  0.65889425  0.99303547     0.11660
H263        H  0.80260265  0.65907039  0.03230174     0.11660
H264        H  0.78044281  0.60630894  0.25500790     0.11660
C265        C  0.87296511  0.99408113  0.13405843    -0.14470
C266        C  0.88737911  0.97996010  0.20310990     0.07680
C267        C  0.90173416  0.99891444  0.26270897    -0.14470
C268        C  0.90235035  0.03147218  0.25171666    -0.14470
C269        C  0.88881260  0.04522947  0.18076901     0.07680
C270        C  0.87372242  0.02625096  0.12302110    -0.14470
H271        H  0.86136811  0.98019195  0.08749029     0.11660
H272        H  0.91309904  0.98855767  0.31635241     0.11660
H273        H  0.91413210  0.04574073  0.29707513     0.11660
H274        H  0.86258625  0.03632586  0.06860926     0.11660
C275        C  0.89969378  0.52052130  0.15814484    -0.14470
C276        C  0.88541369  0.53947546  0.21811940     0.07680
C277        C  0.87088296  0.52535294  0.28738196    -0.14470
C278        C  0.87148756  0.49317964  0.29833178    -0.14470
C279        C  0.88658730  0.47418485  0.24034608     0.07680
C280        C  0.90020934  0.48795528  0.16912262    -0.14470
H281        H  0.91112911  0.53088779  0.10430452     0.11660
H282        H  0.85931682  0.53925357  0.33419438     0.11660
H283        H  0.86028475  0.48313070  0.35298415     0.11660
H284        H  0.91199420  0.47369564  0.12353802     0.11660
C285        C  0.90558958  0.28162384  0.09557508    -0.14470
C286        C  0.89122335  0.29151521  0.02133048     0.07680
C287        C  0.87675754  0.26937345  0.30407430    -0.14470
C288        C  0.87692600  0.23784059  0.99362093    -0.14470
C289        C  0.89128508  0.22799428  0.06778114     0.07680
C290        C  0.90565087  0.25008310  0.11852605    -0.14470
H291        H  0.91705083  0.29824229  0.13551830     0.11660
H292        H  0.86502790  0.27650300  0.24741504     0.11660
H293        H  0.86542327  0.22117421  0.95393225     0.11660
H294        H  0.91731516  0.24287453  0.17522069     0.11660
C295        C  0.65714824  0.02597849  0.13488944    -0.14470
C296        C  0.64213821  0.04539856  0.07682361     0.07680
C297        C  0.62854101  0.03202883  0.00620521    -0.14470
C298        C  0.62907077  0.99950598  0.99576942    -0.14470
C299        C  0.64339163  0.98009221  0.05556992     0.07680
C300        C  0.65780434  0.99381017  0.12442178    -0.14470
H301        H  0.66827367  0.03571007  0.18918284     0.11660
H302        H  0.61672786  0.04655955  0.96069306     0.11660
H303        H  0.61767011  0.98952084  0.94226773     0.11660
H304        H  0.66932926  0.97960434  0.17123601     0.11660
C305        C  0.74862021  0.15104168  0.06586234    -0.14470
C306        C  0.73216260  0.13767247  0.13335044     0.07680
C307        C  0.74896831  0.12388509  0.19884657    -0.14470
C308        C  0.78161645  0.12354574  0.19686256    -0.14470
C309        C  0.79793803  0.13673192  0.12908231     0.07680
C310        C  0.78120926  0.15045727  0.06360908    -0.14470
H311        H  0.73626678  0.16210748  0.01482547     0.11660
H312        H  0.73687388  0.11303387  0.25097451     0.11660
H313        H  0.79416192  0.11259125  0.24774300     0.11660
H314        H  0.79338303  0.16122602  0.01146842     0.11660
C315        C  0.65597407  0.49317496  0.28544656    -0.14470
C316        C  0.64117783  0.47370930  0.34418082     0.07680
C317        C  0.62758877  0.48700372  0.08177847    -0.14470
C318        C  0.62792918  0.51951716  0.09204054    -0.14470
C319        C  0.64211980  0.53901008  0.03179488     0.07680
C320        C  0.65651565  0.52536658  0.29583196    -0.14470
H321        H  0.66703699  0.48344142  0.23083750     0.11660
H322        H  0.61587832  0.47240166  0.12767367     0.11660
H323        H  0.61652592  0.52942374  0.14587475     0.11660
H324        H  0.66791967  0.53963808  0.24860990     0.11660
C325        C  0.74693166  0.36761085  0.36180528    -0.14470
C326        C  0.73070458  0.38098675  0.29436289     0.07680
C327        C  0.74770740  0.39516931  0.22936197    -0.14470
C328        C  0.78026778  0.39572080  0.23134793    -0.14470
C329        C  0.79642532  0.38238366  0.29868437     0.07680
C330        C  0.77956250  0.36842665  0.03075508    -0.14470
H331        H  0.73441566  0.35637768  0.07928086     0.11660
H332        H  0.73583579  0.40604683  0.17723539     0.11660
H333        H  0.79288563  0.40684222  0.18048086     0.11660
H334        H  0.79162494  0.35760388  0.08265492     0.11660
C335        C  0.65016429  0.28170869  0.16007128    -0.14470
C336        C  0.63557000  0.29123708  0.23404835     0.07680
C337        C  0.62122376  0.26873760  0.28547577    -0.14470
C338        C  0.62164921  0.23722254  0.26356674    -0.14470
C339        C  0.63629699  0.22771262  0.18959504     0.07680
C340        C  0.65059843  0.25023840  0.13819747    -0.14470
H341        H  0.66171320  0.29856133  0.11972085     0.11660
H342        H  0.60942237  0.27556926  0.34214058     0.11660
H343        H  0.61022126  0.22032296  0.30403063     0.11660
H344        H  0.66249955  0.24345147  0.08163399     0.11660
C345        C  0.03178193  0.15189245  0.21256419    -0.14470
C346        C  0.05091723  0.13685628  0.15457014     0.07680
C347        C  0.03724290  0.12325335  0.08436890    -0.14470
C348        C  0.00465826  0.12374093  0.07444284    -0.14470
C349        C  0.98554906  0.13801039  0.13438051     0.07680
C350        C  0.99959454  0.15250212  0.20261421    -0.14470
H351        H  0.04175254  0.16304899  0.26648348     0.11660
H352        H  0.05158151  0.11145378  0.03889288     0.11660
H353        H  0.99439647  0.11230873  0.02138929     0.11660
H354        H  0.98562622  0.16403267  0.24944242     0.11660
C355        C  0.49253532  0.12206442  0.16655012    -0.14470
C356        C  0.47919025  0.13567702  0.09515648     0.07680
C357        C  0.49860483  0.15059646  0.03659460    -0.14470
C358        C  0.53076317  0.15121961  0.04746038    -0.14470
C359        C  0.54446833  0.13683415  0.11718825     0.07680
C360        C  0.52506340  0.12253201  0.17736447    -0.14470
H361        H  0.47797383  0.11032490  0.21243082     0.11660
H362        H  0.48886338  0.16173517  0.98170744     0.11660
H363        H  0.54496163  0.16274131  0.00033114     0.11660
H364        H  0.53504924  0.11116406  0.23154706     0.11660
C365        C  0.27453472  0.11832148  0.03189072    -0.14470
C366        C  0.29683546  0.13292918  0.31388255     0.07680
C367        C  0.28716597  0.14737742  0.23943542    -0.14470
C368        C  0.25568362  0.14738258  0.21697136    -0.14470
C369        C  0.23336341  0.13275261  0.26824400     0.07680
C370        C  0.24304908  0.11829107  0.34272066    -0.14470
H371        H  0.28152402  0.10658320  0.08886603     0.11660
H372        H  0.30390704  0.15909456  0.19920530     0.11660
H373        H  0.24872437  0.15917181  0.16004667     0.11660
H374        H  0.22631533  0.10663410  0.38311651     0.11660
C375        C  0.00281514  0.39717715  0.33987632    -0.14470
C376        C  0.98373925  0.38271201  0.28060764     0.07680
C377        C  0.99776191  0.36842911  0.21174925    -0.14470
C378        C  0.02995406  0.36924304  0.20092878    -0.14470
C379        C  0.04905183  0.38426397  0.25869989     0.07680
C380        C  0.03535097  0.39783612  0.32914465    -0.14470
H381        H  0.99257149  0.40846330  0.39338386     0.11660
H382        H  0.98379715  0.35682071  0.16532342     0.11660
H383        H  0.03995289  0.35812163  0.14680355     0.11660
H384        H  0.04966256  0.40958459  0.37452055     0.11660
C385        C  0.15427112  0.27681708  0.14064058    -0.14470
C386        C  0.14035057  0.29320456  0.20590348     0.07680
C387        C  0.12723491  0.27649654  0.27322399    -0.14470
C388        C  0.12797679  0.24386680  0.27520279    -0.14470
C389        C  0.14205130  0.22741298  0.21010431     0.07680
C390        C  0.15521000  0.24421371  0.14284282    -0.14470
H391        H  0.16498598  0.28925544  0.08883970     0.11660
H392        H  0.11613554  0.28872962  0.32399151     0.11660
H393        H  0.11726623  0.23150770  0.32712891     0.11660
H394        H  0.16645891  0.23212152  0.09207835     0.11660
C395        C  0.49837491  0.40276781  0.04895002    -0.14470
C396        C  0.47841134  0.38892336  0.99113532     0.07680
C397        C  0.49119602  0.37534406  0.25280501    -0.14470
C398        C  0.52366795  0.37467131  0.24103952    -0.14470
C399        C  0.54349712  0.38750650  0.30095377     0.07680
C400        C  0.53054243  0.40195231  0.37083700    -0.14470
H401        H  0.48907272  0.41393128  0.10385985     0.11660
H402        H  0.47622084  0.36434879  0.20761385     0.11660
H403        H  0.53330448  0.36308161  0.18720996     0.11660
H404        H  0.54542999  0.41230166  0.41740415     0.11660
C405        C  0.40241276  0.27669482  0.98086598    -0.14470
C406        C  0.38910060  0.29245760  0.04832433     0.07680
C407        C  0.37542191  0.27527430  0.11354159    -0.14470
C408        C  0.37478585  0.24269728  0.11095860    -0.14470
C409        C  0.38808605  0.22680092  0.04341522     0.07680
C410        C  0.40208268  0.24410964  0.97862559    -0.14470
H411        H  0.41326956  0.28964726  0.93015814     0.11660
H412        H  0.36454570  0.28708787  0.16535302     0.11660
H413        H  0.36363844  0.22994220  0.16154440     0.11660
H414        H  0.41290301  0.23246055  0.92648686     0.11660
C415        C  0.28555840  0.37096206  0.18019057    -0.14470
C416        C  0.29576798  0.38506118  0.10552950     0.07680
C417        C  0.27399849  0.39997687  0.05392593    -0.14470
C418        C  0.24247611  0.40067762  0.07633758    -0.14470
C419        C  0.23220265  0.38657542  0.15101578     0.07680
C420        C  0.25399180  0.37157786  0.20254236    -0.14470
H421        H  0.30194341  0.35912210  0.22073240     0.11660
H422        H  0.28145431  0.41151670  0.99688471     0.11660
H423        H  0.22616660  0.41252232  0.03555469     0.11660
H424        H  0.24656268  0.36002503  0.25957681     0.11660
C425        C  0.15677631  0.99387623  0.11637093    -0.14470
C426        C  0.14178868  0.97439621  0.17479398     0.07680
C427        C  0.12814617  0.98772194  0.24570936    -0.14470
C428        C  0.12866796  0.02023266  0.25620335    -0.14470
C429        C  0.14303003  0.03969248  0.19617584     0.07680
C430        C  0.15741972  0.02604205  0.12689867    -0.14470
H431        H  0.16795463  0.98420338  0.06185491     0.11660
H432        H  0.11639880  0.97314724  0.29160977     0.11660
H433        H  0.11728553  0.03016650  0.31003417     0.11660
H434        H  0.16896465  0.04029401  0.07987505     0.11660
C435        C  0.03120396  0.86797442  0.20868833    -0.14470
C436        C  0.04507531  0.88233614  0.13877603     0.07680
C437        C  0.02587685  0.89675771  0.07893193    -0.14470
C438        C  0.99336973  0.89729460  0.09009562    -0.14470
C439        C  0.97983234  0.88366588  0.16156301     0.07680
C440        C  0.99903676  0.86869148  0.21995559    -0.14470
H441        H  0.04526914  0.85640561  0.25561521     0.11660
H442        H  0.03600334  0.90810893  0.02462669     0.11660
H443        H  0.97895543  0.90902319  0.04426439     0.11660
H444        H  0.98913564  0.85753918  0.27488885     0.11660
C445        C  0.15525956  0.52662421  0.29937237    -0.14470
C446        C  0.14021056  0.54600068  0.24129470     0.07680
C447        C  0.12672342  0.53262482  0.17056814    -0.14470
C448        C  0.12740073  0.50011250  0.16001296    -0.14470
C449        C  0.14181627  0.48072209  0.21972352     0.07680
C450        C  0.15611351  0.49446572  0.28871995    -0.14470
H451        H  0.16629497  0.53639781  0.35374489     0.11660
H452        H  0.11487008  0.54713718  0.12509589     0.11660
H453        H  0.11606642  0.49011638  0.10642734     0.11660
H454        H  0.16767533  0.48029097  0.33553182     0.11660
C455        C  0.02910904  0.65239436  0.21691160    -0.14470
C456        C  0.04291642  0.63801248  0.28649868     0.07680
C457        C  0.02361414  0.62369126  0.34685185    -0.14470
C458        C  0.99107122  0.62304204  0.33603277    -0.14470
C459        C  0.97765314  0.63653561  0.26454116     0.07680
C460        C  0.99696932  0.65162486  0.20609657    -0.14470
H461        H  0.04323862  0.66396405  0.16971301     0.11660
H462        H  0.03370321  0.61229338  0.06753219     0.11660
H463        H  0.97657533  0.61118578  0.38184205     0.11660
H464        H  0.98717116  0.66271147  0.15120454     0.11660
C465        C  0.12238834  0.75062733  0.97127543    -0.14470
C466        C  0.13678263  0.72817413  0.02219875     0.07680
C467        C  0.15137827  0.73768953  0.09585518    -0.14470
C468        C  0.15175545  0.76917673  0.11789814    -0.14470
C469        C  0.13734979  0.79166019  0.06698166     0.07680
C470        C  0.12271553  0.78209405  0.99333833    -0.14470
H471        H  0.11058245  0.74377012  0.24820942     0.11660
H472        H  0.16298781  0.72082925  0.13566085     0.11660
H473        H  0.16366491  0.77600080  0.17415280     0.11660
H474        H  0.11125546  0.79892677  0.95309150     0.11660
C475        C  0.40181024  0.98776989  0.99880339    -0.14470
C476        C  0.38837251  0.97385614  0.07003860     0.07680
C477        C  0.37320636  0.99267943  0.12828018    -0.14470
C478        C  0.37237816  0.02485889  0.11763277    -0.14470
C479        C  0.38679062  0.03916529  0.04846528     0.07680
C480        C  0.40110809  0.02036156  0.98816808    -0.14470
H481        H  0.41367886  0.97362085  0.95313521     0.11660
H482        H  0.36214277  0.98246484  0.18292825     0.11660
H483        H  0.36077954  0.03862464  0.16467454     0.11660
H484        H  0.41247139  0.03087022  0.93441474     0.11660
C485        C  0.50457526  0.89579141  0.17940557    -0.14470
C486        C  0.48564973  0.88157536  0.11937023     0.07680
C487        C  0.49983451  0.86708614  0.05110543    -0.14470
C488        C  0.53202563  0.86770800  0.04108234    -0.14470
C489        C  0.55099269  0.88278190  0.09901030     0.07680
C490        C  0.53717469  0.89632517  0.16935609    -0.14470
H491        H  0.49415994  0.90719785  0.23249441     0.11660
H492        H  0.48596767  0.85555205  0.00433109     0.11660
H493        H  0.54212880  0.85656674  0.98711136     0.11660
H494        H  0.55141109  0.90812731  0.21478623     0.11660
C495        C  0.28181369  0.86901200  0.05679917    -0.14470
C496        C  0.29801236  0.88238867  0.12352613     0.07680
C497        C  0.28100594  0.89643377  0.18775809    -0.14470
C498        C  0.24843668  0.89680108  0.18576660    -0.14470
C499        C  0.23231185  0.88338430  0.11922057     0.07680
C500        C  0.24920539  0.86962028  0.05451961    -0.14470
H501        H  0.29435777  0.85784219  0.00664745     0.11660
H502        H  0.29288215  0.90730686  0.23926190     0.11660
H503        H  0.23578338  0.90779485  0.23603411     0.11660
H504        H  0.23716662  0.85873356  0.00329484     0.11660
C505        C  0.37100917  0.52599603  0.28793698    -0.14470
C506        C  0.38613922  0.54495758  0.34574851     0.07680
C507        C  0.39953854  0.53117333  0.08346394    -0.14470
C508        C  0.39878069  0.49864600  0.09452992    -0.14470
C509        C  0.38447243  0.47970099  0.03483809     0.07680
C510        C  0.37016823  0.49379815  0.29899152    -0.14470
H511        H  0.35996961  0.53609188  0.23341981     0.11660
H512        H  0.41134779  0.54539528  0.12888024     0.11660
H513        H  0.41010796  0.48828398  0.14822665     0.11660
H514        H  0.35864619  0.47986000  0.25239434     0.11660
C515        C  0.49776565  0.65100969  0.04133823    -0.14470
C516        C  0.48386716  0.63667770  0.30598745     0.07680
C517        C  0.50308911  0.62229043  0.24652256    -0.14470
C518        C  0.53562339  0.62175625  0.25690110    -0.14470
C519        C  0.54919897  0.63538404  0.99383576     0.07680
C520        C  0.52995504  0.65032863  0.05179324    -0.14470
H521        H  0.48370191  0.66256218  0.08792138     0.11660
H522        H  0.49295763  0.61095815  0.19313819     0.11660
H523        H  0.55002713  0.61004289  0.21139743     0.11660
H524        H  0.53983835  0.66148460  0.10581705     0.11660
C525        C  0.24714290  0.65089004  0.22634591    -0.14470
C526        C  0.23069367  0.63746091  0.29380239     0.07680
C527        C  0.24749887  0.62344390  0.02558341    -0.14470
C528        C  0.28009616  0.62309587  0.35697223    -0.14470
C529        C  0.29646373  0.63651508  0.28960147     0.07680
C530        C  0.27976425  0.65029878  0.22411333    -0.14470
H531        H  0.23478029  0.66206045  0.17548805     0.11660
H532        H  0.23544699  0.61255199  0.07772718     0.11660
H533        H  0.29257695  0.61206911  0.07452051     0.11660
H534        H  0.29196218  0.66117234  0.17217271     0.11660
C535        C  0.40633562  0.76940644  0.13732417    -0.14470
C536        C  0.39192711  0.79147640  0.18833333     0.07680
C537        C  0.37752027  0.78156001  0.26277406    -0.14470
C538        C  0.37730647  0.74998777  0.28548887    -0.14470
C539        C  0.39170016  0.72788603  0.23444586     0.07680
C540        C  0.40617265  0.73785519  0.16006312    -0.14470
H541        H  0.41801297  0.77661543  0.08034046     0.11660
H542        H  0.36597227  0.79816974  0.30272298     0.11660
H543        H  0.36552508  0.74280045  0.34233109     0.11660
H544        H  0.41758500  0.72127440  0.11971926     0.11660
O545        O  0.38708409  0.68529999  0.66501866    -0.72900
O546        O  0.39118790  0.59849644  0.38581546    -0.73120
O547        O  0.43315131  0.64441461  0.69485496    -0.72980
O548        O  0.34520361  0.63939400  0.69109835    -0.72990
O549        O  0.34660128  0.63452476  0.55663571    -0.72950
O550        O  0.43543345  0.62826918  0.56736171    -0.72970
O551        O  0.38721383  0.58846087  0.58737005    -0.72910
O552        O  0.39466112  0.67420001  0.53490389    -0.73100
V553        V  0.38923735  0.64176125  0.69019139     1.35240
V554        V  0.39096197  0.63152168  0.56387265     1.35170
C555        C  0.39113837  0.69447375  0.59046374     0.76340
C556        C  0.38844988  0.57870035  0.66173852     0.76390
C557        C  0.44943941  0.63638639  0.63299123     0.76260
C558        C  0.33081302  0.63685915  0.62317263     0.76220
O559        O  0.39263786  0.83341689  0.42242222    -0.72900
O560        O  0.39126150  0.91996536  0.36449932    -0.73120
O561        O  0.43575444  0.87705288  0.39207963    -0.72980
O562        O  0.34773892  0.87582203  0.39342256    -0.72990
O563        O  0.34740248  0.88833439  0.52404852    -0.72950
O564        O  0.43647797  0.88821830  0.52356850    -0.72970
O565        O  0.39165056  0.93097894  0.49616917    -0.72910
O566        O  0.39153908  0.84536120  0.55345749    -0.73100
V567        V  0.39185450  0.87679946  0.39566195     1.35240
V568        V  0.39183955  0.88799068  0.52177717     1.35170
C569        C  0.39206911  0.82475656  0.49802671     0.76340
C570        C  0.39079646  0.94018511  0.42132649     0.76390
C571        C  0.45123415  0.88242417  0.45700151     0.76260
C572        C  0.33245326  0.88211157  0.45842729     0.76220
O573        O  0.13628648  0.68662514  0.59053478    -0.72900
O574        O  0.13776471  0.60022816  0.53474304    -0.73120
O575        O  0.09323173  0.64314491  0.56046397    -0.72980
O576        O  0.18124181  0.64421177  0.56308128    -0.72990
O577        O  0.18091471  0.63112721  0.36069864    -0.72950
O578        O  0.09174001  0.63119381  0.69212758    -0.72970
O579        O  0.13681019  0.58851568  0.66664716    -0.72910
O580        O  0.13659621  0.67398559  0.38847012    -0.73100
V581        V  0.13711438  0.64330435  0.56478562     1.35240
V582        V  0.13644793  0.63145262  0.35775662     1.35170
C583        C  0.13649374  0.69492294  0.33258575     0.76340
C584        C  0.13793193  0.57966670  0.59203364     0.76390
C585        C  0.07735157  0.63733387  0.62513336     0.76260
C586        C  0.19621098  0.63765761  0.62845414     0.76220
O587        O  0.14198895  0.83380907  0.49671204    -0.72900
O588        O  0.13729615  0.92042517  0.54936900    -0.73120
O589        O  0.09571737  0.87432974  0.52667346    -0.72980
O590        O  0.18355226  0.87988972  0.52136429    -0.72990
O591        O  0.18229616  0.88549590  0.38679697    -0.71990
O592        O  0.09346118  0.89125370  0.39892679    -0.72970
O593        O  0.14140948  0.93125070  0.41736059    -0.72910
O594        O  0.13443626  0.84565603  0.36656521    -0.73100
V595        V  0.13957242  0.87726391  0.52118855     1.35240
V596        V  0.13792483  0.88824166  0.39471378     1.35170
C597        C  0.13796479  0.82502381  0.42240571     0.76340
C598        C  0.13991926  0.94061808  0.49154008     0.76390
C599        C  0.07945903  0.88268870  0.46499275     0.76260
C600        C  0.19799863  0.88287357  0.45316480     0.76220
O601        O  0.33793233  0.38503960  0.34099111    -0.72900
O602        O  0.42451287  0.38615542  0.28567912    -0.73120
O603        O  0.38223035  0.34144785  0.31525012    -0.72980
O604        O  0.38020526  0.42946099  0.30984594    -0.72990
O605        O  0.39136386  0.43102804  0.44147762    -0.72950
O606        O  0.39351991  0.34204634  0.44703547    -0.72970
O607        O  0.43540847  0.38787322  0.41748734    -0.72910
O608        O  0.34959812  0.38522925  0.47245802    -0.73100
V609        V  0.38139658  0.38552568  0.31556092     1.35240
V610        V  0.39228366  0.38649048  0.44206506     1.35170
C611        C  0.32910589  0.38499320  0.41633457     0.76340
C612        C  0.44469214  0.38755719  0.34277315     0.76390
C613        C  0.38830234  0.32671809  0.38162149     0.76260
C614        C  0.38536932  0.44533854  0.37404138     0.76220
O615        O  0.18950289  0.38307347  0.58115920    -0.72900
O616        O  0.10268547  0.38856633  0.63335490    -0.73120
O617        O  0.14296735  0.34191423  0.60710004    -0.72980
O618        O  0.14926231  0.42984314  0.60932899    -0.72990
O619        O  0.13309303  0.43237812  0.48154983    -0.72950
O620        O  0.13829038  0.34344532  0.47248730    -0.72970
O621        O  0.09266696  0.38466202  0.50144958    -0.72910
O622        O  0.17854974  0.39095443  0.45073857    -0.73100
V623        V  0.14596270  0.38594355  0.60541113     1.35240
V624        V  0.13580061  0.38784653  0.47886565     1.35170
C625        C  0.19876486  0.38692604  0.50668212     0.76340
C626        C  0.08286747  0.38610174  0.57554963     0.76390
C627        C  0.14048162  0.32757838  0.53929378     0.76260
C628        C  0.14135603  0.44627025  0.54712865     0.76220
O629        O  0.33858108  0.13218289  0.41233055    -0.72900
O630        O  0.42506877  0.13321127  0.46827336    -0.73120
O631        O  0.38120711  0.17692065  0.44024364    -0.72980
O632        O  0.38198130  0.08894842  0.44190833    -0.72990
O633        O  0.39361339  0.08845778  0.31023111    -0.72950
O634        O  0.39399976  0.17756582  0.64259515    -0.72970
O635        O  0.43648061  0.13321114  0.33638429    -0.72910
O636        O  0.35090799  0.13346933  0.61437584    -0.73100
V637        V  0.38194983  0.13282953  0.43811292     1.35240
V638        V  0.39350406  0.13310443  0.31175985     1.35170
C639        C  0.33011127  0.13284068  0.33690590     0.76340
C640        C  0.44549237  0.13372516  0.41104143     0.76390
C641        C  0.38770744  0.19236169  0.37506053     0.76260
C642        C  0.38757673  0.07358475  0.37702968     0.76220
O643        O  0.19150922  0.13573373  0.50348938    -0.72900
O644        O  0.10498062  0.13342916  0.44777246    -0.73120
O645        O  0.14713076  0.17853872  0.47683705    -0.72980
O646        O  0.14985716  0.09053702  0.47271014    -0.72990
O647        O  0.13494146  0.08796274  0.60193707    -0.72950
O648        O  0.13782868  0.17703466  0.60982987    -0.72970
O649        O  0.09375691  0.13466622  0.57967644    -0.72910
O650        O  0.17928078  0.13046109  0.63423696    -0.73100
V651        V  0.14814023  0.13446701  0.47770189     1.35240
V652        V  0.13669372  0.13255297  0.60396117     1.35170
C653        C  0.20005123  0.13296971  0.57860946     0.76340
C654        C  0.08463525  0.13467483  0.50508946     0.76390
C655        C  0.14239561  0.19292135  0.54379629     0.76260
C656        C  0.14253833  0.07411245  0.53559378     0.76220
O657        O  0.63392381  0.33317556  0.66493526    -0.72900
O658        O  0.63936943  0.41963810  0.38508268    -0.73120
O659        O  0.59290886  0.37927107  0.69431817    -0.72980
O660        O  0.68085706  0.37367690  0.69090818    -0.72990
O661        O  0.68137812  0.38826840  0.56100055    -0.72950
O662        O  0.59237987  0.38802239  0.56079191    -0.72970
O663        O  0.63719239  0.43095668  0.58635788    -0.72910
O664        O  0.63726126  0.34526765  0.53354449    -0.73100
V665        V  0.63677116  0.37657311  0.68959353     1.35240
V666        V  0.63697501  0.38787401  0.56292548     1.35170
C667        C  0.63544466  0.32455533  0.58982049     0.76340
C668        C  0.63902014  0.44002059  0.66069129     0.76390
C669        C  0.57762451  0.38459017  0.62876923     0.76260
C670        C  0.69624659  0.38084125  0.62623022     0.76220
O671        O  0.63991804  0.18600482  0.42535007    -0.72900
O672        O  0.63846745  0.09956341  0.37005173    -0.73120
O673        O  0.59519029  0.14396184  0.39423591    -0.72980
O674        O  0.68317343  0.14212794  0.39947880    -0.72990
O675        O  0.68190791  0.13261535  0.53253052    -0.72950
O676        O  0.59285662  0.12875191  0.52348855    -0.72970
O677        O  0.64000500  0.08806153  0.50199064    -0.72910
O678        O  0.63484218  0.17350910  0.55610250    -0.73100
V679        V  0.63911112  0.14267191  0.39978518     1.35240
V680        V  0.63742903  0.13097027  0.52607654     1.35170
C681        C  0.63702887  0.19440567  0.50035041     0.76340
C682        C  0.63993760  0.07909023  0.42742138     0.76390
C683        C  0.57888865  0.13641668  0.45697470     0.76260
C684        C  0.69767511  0.13749633  0.46665936     0.76220
O685        O  0.88696782  0.33385407  0.59011750    -0.72900
O686        O  0.89144302  0.42052207  0.53429805    -0.73120
O687        O  0.93318166  0.37466884  0.55912427    -0.72980
O688        O  0.84528754  0.37964650  0.56355216    -0.72990
O689        O  0.84639109  0.38478578  0.36457881    -0.72950
O690        O  0.93521471  0.39116272  0.68628372    -0.72970
O691        O  0.88715530  0.43084518  0.66592794    -0.72910
O692        O  0.89433917  0.34526467  0.38658456    -0.73100
V693        V  0.88929178  0.37731771  0.56410184     1.35240
V694        V  0.89076126  0.38785989  0.35685001     1.35170
C695        C  0.89084533  0.32486198  0.66478991     0.76340
C696        C  0.88866077  0.44045073  0.59140574     0.76390
C697        C  0.94933483  0.38289943  0.62067838     0.76260
C698        C  0.83075687  0.38223340  0.63157911     0.76220
O699        O  0.89047988  0.18566145  0.49930581    -0.72900
O700        O  0.89250582  0.09886896  0.55401755    -0.73120
O701        O  0.93531239  0.14370877  0.52724801    -0.72980
O702        O  0.84723974  0.14088179  0.52775898    -0.72990
O703        O  0.84747667  0.13289749  0.39439336    -0.72950
O704        O  0.93657316  0.13025549  0.39738809    -0.72970
O705        O  0.89026317  0.08856483  0.42208066    -0.72910
O706        O  0.89309490  0.17439019  0.36792041    -0.73100
V707        V  0.89139779  0.14211092  0.52453675     1.35240
V708        V  0.89191544  0.13168777  0.39797395     1.35170
C709        C  0.89167297  0.19468411  0.42400074     0.76340
C710        C  0.89083679  0.07896123  0.49663938     0.76390
C711        C  0.95108636  0.13721982  0.46321940     0.76260
C712        C  0.83228358  0.13680348  0.46126395     0.76220
O713        O  0.68976329  0.63657959  0.33780628    -0.72900
O714        O  0.60301118  0.63127812  0.61898428    -0.73120
O715        O  0.64339093  0.67786530  0.31233236    -0.72980
O716        O  0.64944767  0.58995698  0.30911191    -0.72990
O717        O  0.63296087  0.58723129  0.43697736    -0.72950
O718        O  0.63821702  0.67616164  0.44692293    -0.72970
O719        O  0.59260815  0.63492837  0.41764575    -0.72910
O720        O  0.67834176  0.62859915  0.46816995    -0.73100
V721        V  0.64625027  0.63383750  0.31355753     1.35240
V722        V  0.63568704  0.63175716  0.44010633     1.35170
C723        C  0.69877537  0.63250543  0.41222242     0.76340
C724        C  0.58300962  0.63360243  0.34356165     0.76390
C725        C  0.64064688  0.69211428  0.38024931     0.76260
C726        C  0.64144140  0.57344169  0.37126433     0.76220
O727        O  0.83714102  0.63241866  0.57919918    -0.72900
O728        O  0.92344741  0.63387083  0.63685930    -0.73120
O729        O  0.87954302  0.67734055  0.60698994    -0.72980
O730        O  0.88055253  0.58940497  0.61059367    -0.72990
O731        O  0.89242859  0.58854855  0.47908897    -0.72950
O732        O  0.89275061  0.67763670  0.47630488    -0.72970
O733        O  0.93519355  0.63341660  0.50519494    -0.72910
O734        O  0.84978039  0.63344339  0.44811081    -0.73100
V735        V  0.88041582  0.63326333  0.60583400     1.35240
V736        V  0.89229263  0.63319182  0.47969655     1.35170
C737        C  0.82885493  0.63288923  0.50362333     0.76340
C738        C  0.94401148  0.63425876  0.57999811     0.76390
C739        C  0.88622027  0.69260080  0.54164449     0.76260
C740        C  0.88626375  0.57386651  0.54610057     0.76220
O741        O  0.69145878  0.88404294  0.41516673    -0.72900
O742        O  0.60492596  0.88637127  0.47193421    -0.73120
O743        O  0.64699845  0.84124947  0.44267203    -0.72980
O744        O  0.64991336  0.92928492  0.44608819    -0.72990
O745        O  0.63526704  0.93171820  0.31698465    -0.72950
O746        O  0.63786860  0.84262587  0.64314154    -0.72970
O747        O  0.59392878  0.88506342  0.34014944    -0.72910
O748        O  0.67947259  0.88912597  0.61782834    -0.73100
V749        V  0.64809825  0.88533468  0.44147147     1.35240
V750        V  0.63686779  0.88711817  0.64865805     1.35170
C751        C  0.70011499  0.88664819  0.33991472     0.76340
C752        C  0.58469880  0.88506227  0.41484047     0.76390
C753        C  0.64233408  0.82679934  0.37586917     0.76260
C754        C  0.64278419  0.94564543  0.38312531     0.76220
O755        O  0.83930932  0.88522189  0.50688941    -0.72900
O756        O  0.92616018  0.88719821  0.45404852    -0.73120
O757        O  0.88393693  0.84201068  0.48073645    -0.72980
O758        O  0.88148327  0.92993407  0.47846135    -0.72990
O759        O  0.89491686  0.93097072  0.60857845    -0.72950
O760        O  0.89188472  0.84194704  0.61429143    -0.72970
O761        O  0.93645426  0.88467583  0.58624544    -0.72910
O762        O  0.85055652  0.88758998  0.63842924    -0.73100
V763        V  0.88289412  0.88608820  0.48259236     1.35240
V764        V  0.89328899  0.88635911  0.60936972     1.35170
C765        C  0.83025852  0.88635829  0.58196226     0.76340
C766        C  0.94607507  0.88544599  0.51185276     0.76390
C767        C  0.88795886  0.82693555  0.54772494     0.76260
C768        C  0.88802315  0.94556561  0.54212374     0.76220
C769        C  0.75545336  0.87200949  0.36801415    -0.14470
C770        C  0.73341449  0.88665251  0.64995468     0.07680
C771        C  0.74337358  0.90089337  0.57516721    -0.14470
C772        C  0.77491388  0.90068463  0.55257320    -0.14470
C773        C  0.79691861  0.88614820  0.60422093     0.07680
C774        C  0.78697107  0.87188140  0.67886825    -0.14470
H775        H  0.74825279  0.86035690  0.42511915     0.11660
H776        H  0.72682726  0.91253917  0.53468864     0.11660
H777        H  0.78219813  0.91230976  0.49550132     0.11660
H778        H  0.80354483  0.86026167  0.38596530     0.11660
C779        C  0.90068840  0.74417716  0.47782730    -0.14470
C780        C  0.88657978  0.72702710  0.54272720     0.07680
C781        C  0.87327321  0.74306213  0.61000898    -0.14470
C782        C  0.87412197  0.77562470  0.61239927    -0.14470
C783        C  0.88802302  0.79266437  0.54723727     0.07680
C784        C  0.90124851  0.77675460  0.47988790    -0.14470
H785        H  0.91149521  0.73240960  0.42585870     0.11660
H786        H  0.86204283  0.73042474  0.66067337     0.11660
H787        H  0.86335226  0.78753673  0.66420505     0.11660
H788        H  0.91230993  0.78956972  0.42925058     0.11660
C789        C  0.62795451  0.77579599  0.31154472    -0.14470
C790        C  0.64198047  0.79230552  0.37634557     0.07680
C791        C  0.65514258  0.77554887  0.44331073    -0.14470
C792        C  0.65427565  0.74293240  0.44546880    -0.14470
C793        C  0.64042668  0.72649512  0.38044972     0.07680
C794        C  0.62728460  0.74316339  0.31347565    -0.14470
H795        H  0.61723741  0.78811561  0.59319246     0.11660
H796        H  0.66635937  0.78768609  0.49383005     0.11660
H797        H  0.66500328  0.73052670  0.49699830     0.11660
H798        H  0.61622631  0.73089171  0.26292508     0.11660
C799        C  0.74195674  0.61783491  0.50885910    -0.14470
C800        C  0.73216793  0.63231745  0.43447008     0.07680
C801        C  0.75441213  0.64708447  0.38322363    -0.14470
C802        C  0.78590909  0.64721464  0.40573200    -0.14470
C803        C  0.79563173  0.63278116  0.48017346     0.07680
C804        C  0.77341412  0.61801319  0.53136955    -0.14470
H805        H  0.72530262  0.60612861  0.54940958     0.11660
H806        H  0.74738860  0.65888891  0.32638182     0.11660
H807        H  0.80260406  0.65906421  0.36564900     0.11660
H808        H  0.78044280  0.60630297  0.58835446     0.11660
C809        C  0.87296696  0.99407685  0.46739639    -0.14470
C810        C  0.88737999  0.97995654  0.53645026     0.07680
C811        C  0.90173350  0.99891160  0.59605053    -0.14470
C812        C  0.90234938  0.03146935  0.58505641    -0.14470
C813        C  0.88881288  0.04522582  0.51410582     0.07680
C814        C  0.87372392  0.02624655  0.45635745    -0.14470
H815        H  0.86137095  0.98018722  0.42082745     0.11660
H816        H  0.91309742  0.98855540  0.64969620     0.11660
H817        H  0.91412999  0.04573849  0.63041564     0.11660
H818        H  0.86258841  0.03632073  0.40194372     0.11660
C819        C  0.89969763  0.52051919  0.49151757    -0.14470
C820        C  0.88541506  0.53947344  0.55148753     0.07680
C821        C  0.87088232  0.52535146  0.62074776    -0.14470
C822        C  0.87148760  0.49317840  0.63170041    -0.14470
C823        C  0.88659016  0.47418367  0.57372001     0.07680
C824        C  0.90021384  0.48795349  0.50249811    -0.14470
H825        H  0.91113421  0.53088539  0.43767876     0.11660
H826        H  0.85931414  0.53925235  0.66755612     0.11660
H827        H  0.86028309  0.48312964  0.68635054     0.11660
H828        H  0.91200010  0.47369359  0.45691651     0.11660
C829        C  0.90557236  0.28162038  0.42888589    -0.14470
C830        C  0.89120976  0.29150924  0.35463363     0.07680
C831        C  0.87675901  0.26937373  0.63743040    -0.14470
C832        C  0.87691918  0.23783258  0.32692604    -0.14470
C833        C  0.89127565  0.22798890  0.40109279     0.07680
C834        C  0.90563567  0.25008020  0.45184099    -0.14470
H835        H  0.91702956  0.29824049  0.46883241     0.11660
H836        H  0.86503021  0.27650418  0.58077069     0.11660
H837        H  0.86541982  0.22116440  0.28723609     0.11660
H838        H  0.91729761  0.24287395  0.50854109     0.11660
C839        C  0.65714434  0.02597751  0.46821920    -0.14470
C840        C  0.64213479  0.04539727  0.41015186     0.07680
C841        C  0.62853859  0.03202727  0.33953241    -0.14470
C842        C  0.62906888  0.99950441  0.32909707    -0.14470
C843        C  0.64338933  0.98009096  0.38889902     0.07680
C844        C  0.65780100  0.99380922  0.45775198    -0.14470
H845        H  0.66826920  0.03570931  0.52251314     0.11660
H846        H  0.61672597  0.04655779  0.29401882     0.11660
H847        H  0.61766910  0.98951903  0.27559436     0.11660
H848        H  0.66932564  0.97960367  0.50456729     0.11660
C849        C  0.74861919  0.15103980  0.39918975    -0.14470
C850        C  0.73216121  0.13766802  0.46667339     0.07680
C851        C  0.74896629  0.12387718  0.53216559    -0.14470
C852        C  0.78161434  0.12353673  0.53018166    -0.14470
C853        C  0.79793627  0.13672525  0.46240533     0.07680
C854        C  0.78120815  0.15045438  0.39693663    -0.14470
H855        H  0.73626612  0.16210850  0.34815666     0.11660
H856        H  0.73687141  0.11302429  0.58429039     0.11660
H857        H  0.79415946  0.11257990  0.58105922     0.11660
H858        H  0.79338241  0.16122547  0.34480019     0.11660
C859        C  0.65597858  0.49317658  0.61875250    -0.14470
C860        C  0.64118342  0.47371011  0.67748690     0.07680
C861        C  0.62757311  0.48700409  0.41512593    -0.14470
C862        C  0.62791625  0.51951754  0.42538743    -0.14470
C863        C  0.64211385  0.53900866  0.36514936     0.07680
C864        C  0.65651928  0.52536821  0.62913946    -0.14470
H865        H  0.66704108  0.48344373  0.56414193     0.11660
H866        H  0.61585762  0.47240339  0.46101503     0.11660
H867        H  0.61650985  0.52942559  0.47921503     0.11660
H868        H  0.66792217  0.53964048  0.58191708     0.11660
C869        C  0.74693259  0.36760515  0.69512326    -0.14470
C870        C  0.73070826  0.38098590  0.62768325     0.07680
C871        C  0.74771296  0.39517323  0.56269349    -0.14470
C872        C  0.78027308  0.39572451  0.56468790    -0.14470
C873        C  0.79642772  0.38238273  0.63202260     0.07680
C874        C  0.77955168  0.36842857  0.36409926    -0.14470
H875        H  0.73440577  0.35637967  0.41263368     0.11660
H876        H  0.73584303  0.40605471  0.51056994     0.11660
H877        H  0.79289291  0.40684924  0.51382937     0.11660
H878        H  0.79161557  0.35760607  0.41599706     0.11660
C879        C  0.65016842  0.28170784  0.49338306    -0.14470
C880        C  0.63557467  0.29123739  0.56735981     0.07680
C881        C  0.62122890  0.26873869  0.61879062    -0.14470
C882        C  0.62165367  0.23722338  0.59688455    -0.14470
C883        C  0.63630030  0.22771235  0.52291242     0.07680
C884        C  0.65060182  0.25023724  0.47151205    -0.14470
H885        H  0.66171739  0.29855978  0.45303069     0.11660
H886        H  0.60942831  0.27557117  0.67545588     0.11660
H887        H  0.61022599  0.22032448  0.63735102     0.11660
H888        H  0.66250221  0.24344941  0.41494825     0.11660
C889        C  0.03177936  0.15188728  0.54589911    -0.14470
C890        C  0.05091487  0.13685091  0.48790600     0.07680
C891        C  0.03724095  0.12324928  0.41770231    -0.14470
C892        C  0.00465645  0.12373803  0.40777335    -0.14470
C893        C  0.98554693  0.13800755  0.46771030     0.07680
C894        C  0.99959209  0.15249814  0.53594629    -0.14470
H895        H  0.04174977  0.16304331  0.59981939     0.11660
H896        H  0.05157977  0.11144987  0.37222639     0.11660
H897        H  0.99439498  0.11230668  0.35471804     0.11660
H898        H  0.98562360  0.16402872  0.58277409     0.11660
C899        C  0.49253502  0.12206484  0.49987717    -0.14470
C900        C  0.47918946  0.13567972  0.42848746     0.07680
C901        C  0.49860347  0.15060140  0.36992817    -0.14470
C902        C  0.53076189  0.15122438  0.38079245    -0.14470
C903        C  0.54446749  0.13683648  0.45051602     0.07680
C904        C  0.52506310  0.12253231  0.51069000    -0.14470
H905        H  0.47797393  0.11032348  0.54575549     0.11660
H906        H  0.48886154  0.16174159  0.31504368     0.11660
H907        H  0.54496008  0.16274759  0.33366520     0.11660
H908        H  0.53504939  0.11116245  0.56486921     0.11660
C909        C  0.27453499  0.11831837  0.36521486    -0.14470
C910        C  0.29683390  0.13292870  0.64721791     0.07680
C911        C  0.28716349  0.14737240  0.57276557    -0.14470
C912        C  0.25568093  0.14737573  0.55030344    -0.14470
C913        C  0.23336120  0.13274837  0.60158309     0.07680
C914        C  0.24304772  0.11829163  0.67606558    -0.14470
H915        H  0.28152415  0.10657957  0.42218953     0.11660
H916        H  0.30390400  0.15908747  0.53252957     0.11660
H917        H  0.24872116  0.15916162  0.49337442     0.11660
H918        H  0.22631449  0.10663689  0.71646754     0.11660
C919        C  0.00281340  0.39717440  0.67328788    -0.14470
C920        C  0.98373949  0.38270746  0.61401802     0.07680
C921        C  0.99776372  0.36842083  0.54516803    -0.14470
C922        C  0.02995565  0.36923407  0.53435386    -0.14470
C923        C  0.04905166  0.38425705  0.59212492     0.07680
C924        C  0.03534948  0.39783220  0.66256339    -0.14470
H925        H  0.99256806  0.40846342  0.72678878     0.11660
H926        H  0.98380030  0.35681078  0.49874230     0.11660
H927        H  0.03995565  0.35811131  0.48023204     0.11660
H928        H  0.04965999  0.40958308  0.70793711     0.11660
C929        C  0.15425221  0.27681493  0.47399768    -0.14470
C930        C  0.14034747  0.29320009  0.53928909     0.07680
C931        C  0.12724543  0.27648882  0.60662305    -0.14470
C932        C  0.12798665  0.24385881  0.60858945    -0.14470
C933        C  0.14204656  0.22740737  0.54346397     0.07680
C934        C  0.15519069  0.24421127  0.47618752    -0.14470
H935        H  0.16495597  0.28925526  0.42218390     0.11660
H936        H  0.11615669  0.28871958  0.65741080     0.11660
H937        H  0.11728715  0.23149768  0.66052836     0.11660
H938        H  0.16642872  0.23212139  0.42540231     0.11660
C939        C  0.49836207  0.40278039  0.38227779    -0.14470
C940        C  0.47839925  0.38892460  0.32448070     0.07680
C941        C  0.49120217  0.37534750  0.58610578    -0.14470
C942        C  0.52367391  0.37467522  0.57433820    -0.14470
C943        C  0.54350320  0.38750957  0.63425314     0.07680
C944        C  0.53054911  0.40195416  0.70413888    -0.14470
H945        H  0.48905926  0.41395225  0.43717469     0.11660
H946        H  0.47622670  0.36435273  0.54091447     0.11660
H947        H  0.53331020  0.36308622  0.52050721     0.11660
H948        H  0.54543694  0.41230269  0.75070675     0.11660
C949        C  0.40240961  0.27669657  0.31421785    -0.14470
C950        C  0.38909328  0.29245749  0.38167349     0.07680
C951        C  0.37541160  0.27527257  0.44688306    -0.14470
C952        C  0.37477704  0.24269562  0.44429541    -0.14470
C953        C  0.38808160  0.22680107  0.37675492     0.07680
C954        C  0.40208097  0.24411147  0.31197285    -0.14470
H955        H  0.41326847  0.28965043  0.26351569     0.11660
H956        H  0.36453226  0.28708479  0.49869213     0.11660
H957        H  0.36362760  0.22993915  0.49487562     0.11660
H958        H  0.41290461  0.23246375  0.25983672     0.11660
C959        C  0.28555297  0.37095744  0.51356209    -0.14470
C960        C  0.29575960  0.38505653  0.43889826     0.07680
C961        C  0.27398810  0.39997062  0.38729778    -0.14470
C962        C  0.24246676  0.40067162  0.40971818    -0.14470
C963        C  0.23219666  0.38657150  0.48440241     0.07680
C964        C  0.25398743  0.37157356  0.53592280    -0.14470
H965        H  0.30193950  0.35911767  0.55409982     0.11660
H966        H  0.28144164  0.41150952  0.33025317     0.11660
H967        H  0.22615547  0.41251501  0.36893753     0.11660
H968        H  0.24656048  0.36002105  0.59295971     0.11660
C969        C  0.15677639  0.99386904  0.44969928    -0.14470
C970        C  0.14178662  0.97438879  0.50811822     0.07680
C971        C  0.12814080  0.98771465  0.57902883    -0.14470
C972        C  0.12866217  0.02022540  0.58952317    -0.14470
C973        C  0.14302710  0.03968548  0.52950099     0.07680
C974        C  0.15741932  0.02603508  0.46022741    -0.14470
H975        H  0.16795696  0.98419612  0.39518660     0.11660
H976        H  0.11639140  0.97313998  0.62492558     0.11660
H977        H  0.11727740  0.03015907  0.64335072     0.11660
H978        H  0.16896616  0.04028724  0.41320758     0.11660
C979        C  0.03120475  0.86796861  0.54202775    -0.14470
C980        C  0.04507560  0.88232807  0.47211134     0.07680
C981        C  0.02587676  0.89674903  0.41226718    -0.14470
C982        C  0.99336982  0.89728712  0.42343383    -0.14470
C983        C  0.97983291  0.88366045  0.49490459     0.07680
C984        C  0.99903767  0.86868694  0.55329806    -0.14470
H985        H  0.04527022  0.85640066  0.58895549     0.11660
H986        H  0.03600285  0.90809893  0.35795952     0.11660
H987        H  0.97895531  0.90901508  0.37760196     0.11660
H988        H  0.98913692  0.85753628  0.60823413     0.11660
C989        C  0.15526259  0.52662485  0.63277869    -0.14470
C990        C  0.14020381  0.54599938  0.57471415     0.07680
C991        C  0.12670566  0.53262084  0.50400657    -0.14470
C992        C  0.12738289  0.50010831  0.49345602    -0.14470
C993        C  0.14180909  0.48071961  0.55315216     0.07680
C994        C  0.15611597  0.49446552  0.62213131    -0.14470
H995        H  0.16630653  0.53640078  0.68713586     0.11660
H996        H  0.11484540  0.54713173  0.45854355     0.11660
H997        H  0.11604110  0.49011067  0.43988373     0.11660
H998        H  0.16768574  0.48029199  0.66893161     0.11660
C999        C  0.02910767  0.65239881  0.55030109    -0.14470
C1000       C  0.04291442  0.63801503  0.61988658     0.07680
C1001       C  0.02361171  0.62368881  0.68023019    -0.14470
C1002       C  0.99106901  0.62303799  0.66940506    -0.14470
C1003       C  0.97765166  0.63653449  0.59791611     0.07680
C1004       C  0.99696833  0.65162724  0.53947925    -0.14470
H1005       H  0.04323759  0.66397142  0.50310831     0.11660
H1006       H  0.03370162  0.61231392  0.40088494     0.11660
H1007       H  0.97657287  0.61117809  0.71520701     0.11660
H1008       H  0.98717085  0.66271513  0.48458810     0.11660
C1009       C  0.12238992  0.75061848  0.30460393    -0.14470
C1010       C  0.13678515  0.72816521  0.35552511     0.07680
C1011       C  0.15138049  0.73768046  0.42918233    -0.14470
C1012       C  0.15175728  0.76916767  0.45122647    -0.14470
C1013       C  0.13735115  0.79165127  0.40031111     0.07680
C1014       C  0.12271654  0.78208508  0.32666824    -0.14470
H1015       H  0.11058714  0.74377468  0.58155666     0.11660
H1016       H  0.16299001  0.72082005  0.46898778     0.11660
H1017       H  0.16366678  0.77599165  0.50748112     0.11660
H1018       H  0.11125585  0.79891773  0.28642249     0.11660
C1019       C  0.40181170  0.98777006  0.33212972    -0.14470
C1020       C  0.38837298  0.97385638  0.40336382     0.07680
C1021       C  0.37320626  0.99267977  0.46160401    -0.14470
C1022       C  0.37237830  0.02485919  0.45095634    -0.14470
C1023       C  0.38679170  0.03916559  0.38179019     0.07680
C1024       C  0.40110987  0.02036180  0.32149427    -0.14470
H1025       H  0.41368085  0.97362093  0.28646272     0.11660
H1026       H  0.36214207  0.98246532  0.51625139     0.11660
H1027       H  0.36077910  0.03862492  0.49799714     0.11660
H1028       H  0.41247390  0.03087045  0.26774201     0.11660
C1029       C  0.50457530  0.89579188  0.51273709    -0.14470
C1030       C  0.48564967  0.88157519  0.45270309     0.07680
C1031       C  0.49983433  0.86708464  0.38444015    -0.14470
C1032       C  0.53202544  0.86770585  0.37441731    -0.14470
C1033       C  0.55099264  0.88278034  0.43234380     0.07680
C1034       C  0.53717476  0.89632496  0.50268789    -0.14470
H1035       H  0.49416006  0.90719933  0.56582446     0.11660
H1036       H  0.48596739  0.85555006  0.33766687     0.11660
H1037       H  0.54212851  0.85656375  0.32044742     0.11660
H1038       H  0.55141128  0.90812769  0.54811668     0.11660
C1039       C  0.28181453  0.86900528  0.39013168    -0.14470
C1040       C  0.29801238  0.88238679  0.45685310     0.07680
C1041       C  0.28100517  0.89643483  0.52107885    -0.14470
C1042       C  0.24843592  0.89680064  0.51908624    -0.14470
C1043       C  0.23231190  0.88337911  0.45254572     0.07680
C1044       C  0.24920619  0.86961183  0.38785127    -0.14470
H1045       H  0.29435929  0.85783305  0.33998506     0.11660
H1046       H  0.29288075  0.90731138  0.57257844     0.11660
H1047       H  0.23578193  0.90779689  0.56934861     0.11660
H1048       H  0.23716802  0.85872144  0.33663107     0.11660
C1049       C  0.37100543  0.52599762  0.62127412    -0.14470
C1050       C  0.38614090  0.54495831  0.67907767     0.07680
C1051       C  0.39953652  0.53117197  0.41681321    -0.14470
C1052       C  0.39877565  0.49864483  0.42788208    -0.14470
C1053       C  0.38446411  0.47970050  0.36819426     0.07680
C1054       C  0.37016651  0.49379950  0.63232440    -0.14470
H1055       H  0.35996045  0.53609433  0.56676592     0.11660
H1056       H  0.41134795  0.54539335  0.46222676     0.11660
H1057       H  0.41010331  0.48828229  0.48157748     0.11660
H1058       H  0.35864017  0.47986179  0.58573375     0.11660
C1059       C  0.49776633  0.65101372  0.37467736    -0.14470
C1060       C  0.48386626  0.63667820  0.63930641     0.07680
C1061       C  0.50308737  0.62228912  0.57984271    -0.14470
C1062       C  0.53562181  0.62175410  0.59021996    -0.14470
C1063       C  0.54919965  0.63538540  0.32718084     0.07680
C1064       C  0.52995580  0.65033312  0.38513271    -0.14470
H1065       H  0.48370248  0.66256848  0.42125621     0.11660
H1066       H  0.49295512  0.61095604  0.52646060     0.11660
H1067       H  0.55002494  0.61003945  0.54471736     0.11660
H1068       H  0.53983921  0.66149161  0.43915269     0.11660
C1069       C  0.24713902  0.65088627  0.55970868    -0.14470
C1070       C  0.23069197  0.63746004  0.62717312     0.07680
C1071       C  0.24749948  0.62343988  0.35892168    -0.14470
C1072       C  0.28009661  0.62309646  0.69033323    -0.14470
C1073       C  0.29646201  0.63651388  0.62295588     0.07680
C1074       C  0.27976025  0.65029512  0.55746846    -0.14470
H1075       H  0.23477479  0.66205479  0.50885073     0.11660
H1076       H  0.23544761  0.61255184  0.41107110     0.11660
H1077       H  0.29257764  0.61207229  0.40787008     0.11660
H1078       H  0.29195634  0.66116716  0.50552259     0.11660
C1079       C  0.40633429  0.76940691  0.47065908    -0.14470
C1080       C  0.39192656  0.79147733  0.52166824     0.07680
C1081       C  0.37751999  0.78156146  0.59610993    -0.14470
C1082       C  0.37730562  0.74998924  0.61882547    -0.14470
C1083       C  0.39169837  0.72788706  0.56778199     0.07680
C1084       C  0.40617071  0.73785576  0.49339860    -0.14470
H1085       H  0.41801147  0.77661544  0.41367473     0.11660
H1086       H  0.36597255  0.79817156  0.63605890     0.11660
H1087       H  0.36552447  0.74280229  0.67566836     0.11660
H1088       H  0.41758246  0.72127464  0.45305455     0.11660
O1089       O  0.38708521  0.68530071  0.99834522    -0.72900
O1090       O  0.39118978  0.59849677  0.71914698    -0.73120
O1091       O  0.43315068  0.64441384  0.02818629    -0.72980
O1092       O  0.34520295  0.63939623  0.02441621    -0.72990
O1093       O  0.34660331  0.63452797  0.88995338    -0.72950
O1094       O  0.43543487  0.62826941  0.90069233    -0.72970
O1095       O  0.38721409  0.58846204  0.92069262    -0.72910
O1096       O  0.39466453  0.67420150  0.86823088    -0.73100
V1097       V  0.38923676  0.64176185  0.02351622     1.35240
V1098       V  0.39096367  0.63152307  0.89719718     1.35170
C1099       C  0.39114087  0.69447490  0.92379124     0.76340
C1100       C  0.38844886  0.57870099  0.99506099     0.76390
C1101       C  0.44943974  0.63638585  0.96632412     0.76260
C1102       C  0.33081379  0.63686325  0.95648777     0.76220
O1103       O  0.39263763  0.83341873  0.75575591    -0.72900
O1104       O  0.39126102  0.91996726  0.69783635    -0.73120
O1105       O  0.43575408  0.87705470  0.72541376    -0.72980
O1106       O  0.34773859  0.87582428  0.72675936    -0.72990
O1107       O  0.34740281  0.88833634  0.85738556    -0.72950
O1108       O  0.43647815  0.88821908  0.85690329    -0.72970
O1109       O  0.39165113  0.93098028  0.82950656    -0.72910
O1110       O  0.39153903  0.84536231  0.88679171    -0.73100
V1111       V  0.39185415  0.87680136  0.72899740     1.35240
V1112       V  0.39183979  0.88799194  0.85511306     1.35170
C1113       C  0.39206918  0.82475801  0.83136004     0.76340
C1114       C  0.39079635  0.94018672  0.75466418     0.76390
C1115       C  0.45123403  0.88242544  0.79033557     0.76260
C1116       C  0.33245328  0.88211438  0.79176428     0.76220
O1117       O  0.13628475  0.68663224  0.92384386    -0.72900
O1118       O  0.13776833  0.60023940  0.86802238    -0.73120
O1119       O  0.09323237  0.64315196  0.89375831    -0.72980
O1120       O  0.18124323  0.64422369  0.89637765    -0.72990
O1121       O  0.18091415  0.63113357  0.69408327    -0.72950
O1122       O  0.09174167  0.63119128  0.02541618    -0.72970
O1123       O  0.13681773  0.58852040  0.99992302    -0.72910
O1124       O  0.13659550  0.67399393  0.72184172    -0.73100
V1125       V  0.13711537  0.64331351  0.89808009     1.35240
V1126       V  0.13644697  0.63145868  0.69114530     1.35170
C1127       C  0.13649505  0.69492859  0.66594968     0.76340
C1128       C  0.13793948  0.57967565  0.92530634     0.76390
C1129       C  0.07735274  0.63733543  0.95842550     0.76260
C1130       C  0.19621212  0.63766857  0.96175060     0.76220
O1131       O  0.14198950  0.83382084  0.83004735    -0.72900
O1132       O  0.13729606  0.92043778  0.88269968    -0.73120
O1133       O  0.09571761  0.87434176  0.86000507    -0.72980
O1134       O  0.18355232  0.87990204  0.85469817    -0.72990
O1135       O  0.18229671  0.88550799  0.72013077    -0.71990
O1136       O  0.09346153  0.89126371  0.73225657    -0.72970
O1137       O  0.14140870  0.93126252  0.75069090    -0.72910
O1138       O  0.13443810  0.84566630  0.69989916    -0.73100
V1139       V  0.13957257  0.87727612  0.85452123     1.35240
V1140       V  0.13792532  0.88825279  0.72804579     1.35170
C1141       C  0.13796655  0.82503452  0.75574127     0.76340
C1142       C  0.13991855  0.94063056  0.82487011     0.76390
C1143       C  0.07945933  0.88269923  0.79832288     0.76260
C1144       C  0.19799892  0.88288550  0.78649901     0.76220
O1145       O  0.33794040  0.38504129  0.67430344    -0.72900
O1146       O  0.42451984  0.38615679  0.61898672    -0.73120
O1147       O  0.38223768  0.34144897  0.64855883    -0.72980
O1148       O  0.38021286  0.42946247  0.64315927    -0.72990
O1149       O  0.39137238  0.43102807  0.77479067    -0.72950
O1150       O  0.39352844  0.34204691  0.78034348    -0.72970
O1151       O  0.43541662  0.38787369  0.75079442    -0.72910
O1152       O  0.34960684  0.38522942  0.80577010    -0.73100
V1153       V  0.38140414  0.38552700  0.64887131     1.35240
V1154       V  0.39229218  0.38649079  0.77537504     1.35170
C1155       C  0.32911445  0.38499464  0.74964701     0.76340
C1156       C  0.44469949  0.38755831  0.67607947     0.76390
C1157       C  0.38831001  0.32671895  0.71492974     0.76260
C1158       C  0.38537693  0.44533922  0.70735624     0.76220
O1159       O  0.18951170  0.38308082  0.91446546    -0.72900
O1160       O  0.10269598  0.38859217  0.96666285    -0.73120
O1161       O  0.14296949  0.34193074  0.94042643    -0.72980
O1162       O  0.14928009  0.42985915  0.94261453    -0.72990
O1163       O  0.13310102  0.43238772  0.81484325    -0.72950
O1164       O  0.13830066  0.34345537  0.80581120    -0.72970
O1165       O  0.09267607  0.38467186  0.83476205    -0.72910
O1166       O  0.17855893  0.39096422  0.78404563    -0.73100
V1167       V  0.14597247  0.38595981  0.93871856     1.35240
V1168       V  0.13580967  0.38785647  0.81217398     1.35170
C1169       C  0.19877385  0.38693350  0.83998882     0.76340
C1170       C  0.08287740  0.38612100  0.90886131     0.76390
C1171       C  0.14048733  0.32759169  0.87262395     0.76260
C1172       C  0.14137039  0.44628294  0.88041122     0.76220
O1173       O  0.33858078  0.13218545  0.74566252    -0.72900
O1174       O  0.42506894  0.13321279  0.80159967    -0.73120
O1175       O  0.38120838  0.17692281  0.77356740    -0.72980
O1176       O  0.38198035  0.08895046  0.77524148    -0.72990
O1177       O  0.39361177  0.08845790  0.64356392    -0.72950
O1178       O  0.39400152  0.17756467  0.97593784    -0.72970
O1179       O  0.43647992  0.13321097  0.66971014    -0.72910
O1180       O  0.35090952  0.13346897  0.94771528    -0.73100
V1181       V  0.38194981  0.13283159  0.77144167     1.35240
V1182       V  0.39350297  0.13310437  0.64508793     1.35170
C1183       C  0.33011015  0.13284151  0.67023850     0.76340
C1184       C  0.44549220  0.13372570  0.74436691     0.76390
C1185       C  0.38770863  0.19236263  0.70838209     0.76260
C1186       C  0.38757536  0.07358588  0.71036406     0.76220
O1187       O  0.19151001  0.13574558  0.83683104    -0.72900
O1188       O  0.10498105  0.13344609  0.78111837    -0.73120
O1189       O  0.14713382  0.17855320  0.81018560    -0.72980
O1190       O  0.14985543  0.09055152  0.80604920    -0.72990
O1191       O  0.13494238  0.08797586  0.93527796    -0.72950
O1192       O  0.13783001  0.17704822  0.94317764    -0.72970
O1193       O  0.09375786  0.13468019  0.91302299    -0.72910
O1194       O  0.17928217  0.13047364  0.96757921    -0.73100
V1195       V  0.14814081  0.13448153  0.81104589     1.35240
V1196       V  0.13669489  0.13256635  0.93730557     1.35170
C1197       C  0.20005236  0.13298078  0.91195056     0.76340
C1198       C  0.08463593  0.13469019  0.83843627     0.76390
C1199       C  0.14239847  0.19293531  0.87714547     0.76260
C1200       C  0.14253755  0.07412616  0.86893218     0.76220
O1201       O  0.63393375  0.33317539  0.99827434    -0.72900
O1202       O  0.63937384  0.41963908  0.71838849    -0.73120
O1203       O  0.59291790  0.37926965  0.02766399    -0.72980
O1204       O  0.68086676  0.37367796  0.02424224    -0.72990
O1205       O  0.68138530  0.38826862  0.89433408    -0.72950
O1206       O  0.59238606  0.38802214  0.89413862    -0.72970
O1207       O  0.63719914  0.43095668  0.91969778    -0.72910
O1208       O  0.63726748  0.34526792  0.86688325    -0.73100
V1209       V  0.63678051  0.37657304  0.02293316     1.35240
V1210       V  0.63698170  0.38787410  0.89626531     1.35170
C1211       C  0.63545235  0.32455541  0.92315895     0.76340
C1212       C  0.63902744  0.44002074  0.99403091     0.76390
C1213       C  0.57763182  0.38458882  0.96211776     0.76260
C1214       C  0.69625525  0.38084184  0.95956199     0.76220
O1215       O  0.63991927  0.18600492  0.75868316    -0.72900
O1216       O  0.63846738  0.09956331  0.70338607    -0.73120
O1217       O  0.59519082  0.14396262  0.72756731    -0.72980
O1218       O  0.68317393  0.14212686  0.73281438    -0.72990
O1219       O  0.68190746  0.13261499  0.86586631    -0.72950
O1220       O  0.59285606  0.12875284  0.85681991    -0.72970
O1221       O  0.64000410  0.08806173  0.83532525    -0.72910
O1222       O  0.63484228  0.17350947  0.88943545    -0.73100
V1223       V  0.63911163  0.14267188  0.73311880     1.35240
V1224       V  0.63742855  0.13097056  0.85941023     1.35170
C1225       C  0.63702997  0.19440596  0.83368339     0.76340
C1226       C  0.63993712  0.07909026  0.76075615     0.76390
C1227       C  0.57888862  0.13641756  0.79030513     0.76260
C1228       C  0.69767519  0.13749516  0.79999559     0.76220
O1229       O  0.88698033  0.33385921  0.92344994    -0.72900
O1230       O  0.89145348  0.42052583  0.86761594    -0.73120
O1231       O  0.93319362  0.37467472  0.89245226    -0.72980
O1232       O  0.84529869  0.37964958  0.89687487    -0.72990
O1233       O  0.84638905  0.38478428  0.69793442    -0.72950
O1234       O  0.93522461  0.39117700  0.01960409    -0.72970
O1235       O  0.88715925  0.43085161  0.99924281    -0.72910
O1236       O  0.89433566  0.34526317  0.71995458    -0.73100
V1237       V  0.88930333  0.37732216  0.89742671     1.35240
V1238       V  0.89075901  0.38785862  0.69022283     1.35170
C1239       C  0.89085993  0.32486856  0.99812271     0.76340
C1240       C  0.88866675  0.44045553  0.92471939     0.76390
C1241       C  0.94934580  0.38291139  0.95400245     0.76260
C1242       C  0.83076740  0.38223478  0.96490167     0.76220
O1243       O  0.89047855  0.18566077  0.83265644    -0.72900
O1244       O  0.89250712  0.09886855  0.88736360    -0.73120
O1245       O  0.93531229  0.14371020  0.86059918    -0.72980
O1246       O  0.84723966  0.14087968  0.86110443    -0.72990
O1247       O  0.84747806  0.13289596  0.72773862    -0.72950
O1248       O  0.93657459  0.13025816  0.73073832    -0.72970
O1249       O  0.89026626  0.08856530  0.75542580    -0.72910
O1250       O  0.89309492  0.17439047  0.70127039    -0.73100
V1251       V  0.89139774  0.14211042  0.85788515     1.35240
V1252       V  0.89191688  0.13168817  0.73132169     1.35170
C1253       C  0.89167239  0.19468378  0.75735190     0.76340
C1254       C  0.89083921  0.07896136  0.82998406     0.76390
C1255       C  0.95108697  0.13722322  0.79657038     0.76260
C1256       C  0.83228418  0.13680120  0.79460834     0.76220
O1257       O  0.68976265  0.63658307  0.67112498    -0.72900
O1258       O  0.60301110  0.63127952  0.95232122    -0.73120
O1259       O  0.64338829  0.67786666  0.64565409    -0.72980
O1260       O  0.64944943  0.58995866  0.64242513    -0.72990
O1261       O  0.63296240  0.58723063  0.77029008    -0.72950
O1262       O  0.63821423  0.67616092  0.78024449    -0.72970
O1263       O  0.59260738  0.63492598  0.75096232    -0.72910
O1264       O  0.67834114  0.62860026  0.80148766    -0.73100
V1265       V  0.64624978  0.63383901  0.64687494     1.35240
V1266       V  0.63568635  0.63175650  0.77342341     1.35170
C1267       C  0.69877474  0.63250855  0.74554104     0.76340
C1268       C  0.58300899  0.63360087  0.67687795     0.76390
C1269       C  0.64064367  0.69211456  0.71357251     0.76260
C1270       C  0.64144382  0.57344223  0.70457604     0.76220
O1271       O  0.83714162  0.63242346  0.91251495    -0.72900
O1272       O  0.92344875  0.63387076  0.97016856    -0.73120
O1273       O  0.87954593  0.67734278  0.94030778    -0.72980
O1274       O  0.88055149  0.58940725  0.94390072    -0.72990
O1275       O  0.89242925  0.58855271  0.81239680    -0.72950
O1276       O  0.89274969  0.67764059  0.80961989    -0.72970
O1277       O  0.93519358  0.63342135  0.83850307    -0.72910
O1278       O  0.84977967  0.63344724  0.78142566    -0.73100
V1279       V  0.88041678  0.63326566  0.93914646     1.35240
V1280       V  0.89229236  0.63319588  0.81300803     1.35170
C1281       C  0.82885474  0.63289412  0.83693973     0.76340
C1282       C  0.94401220  0.63426099  0.91330579     0.76390
C1283       C  0.88622151  0.69260374  0.87496238     0.76260
C1284       C  0.88626344  0.57386981  0.87940636     0.76220
O1285       O  0.69145838  0.88404200  0.74850281    -0.72900
O1286       O  0.60492548  0.88637171  0.80526783    -0.73120
O1287       O  0.64699711  0.84124922  0.77600561    -0.72980
O1288       O  0.64991361  0.92928475  0.77942376    -0.72990
O1289       O  0.63526785  0.93171848  0.65031979    -0.72950
O1290       O  0.63786898  0.84262704  0.97647542    -0.72970
O1291       O  0.59392869  0.88506453  0.67348274    -0.72910
O1292       O  0.67947305  0.88912717  0.95116242    -0.73100
V1293       V  0.64809779  0.88533447  0.77480619     1.35240
V1294       V  0.63686826  0.88711943  0.98199224     1.35170
C1295       C  0.70011496  0.88664713  0.67325110     0.76340
C1296       C  0.58469850  0.88506322  0.74817361     0.76390
C1297       C  0.64233251  0.82679946  0.70920222     0.76260
C1298       C  0.64278478  0.94564547  0.71646092     0.76220
O1299       O  0.83930952  0.88522318  0.84022172    -0.72900
O1300       O  0.92616011  0.88720164  0.78737853    -0.73120
O1301       O  0.88393780  0.84201307  0.81406440    -0.72980
O1302       O  0.88148266  0.92993610  0.81179624    -0.72990
O1303       O  0.89491723  0.93097138  0.94191286    -0.72950
O1304       O  0.89188565  0.84194822  0.94761948    -0.72970
O1305       O  0.93645470  0.88467755  0.91957497    -0.72910
O1306       O  0.85055709  0.88759038  0.97176146    -0.73100
V1307       V  0.88289421  0.88609042  0.81592361     1.35240
V1308       V  0.89328954  0.88636009  0.94270080     1.35170
C1309       C  0.83025892  0.88635903  0.91529480     0.76340
C1310       C  0.94607525  0.88544923  0.84518207     0.76390
C1311       C  0.88795999  0.82693746  0.88105194     0.76260
C1312       C  0.88802313  0.94556681  0.87545954     0.76220
C1313       C  0.75545310  0.87200827  0.70135393    -0.14470
C1314       C  0.73341496  0.88665346  0.98328835     0.07680
C1315       C  0.74337411  0.90089513  0.90850202    -0.14470
C1316       C  0.77491439  0.90068630  0.88590767    -0.14470
C1317       C  0.79691903  0.88614890  0.93755381     0.07680
C1318       C  0.78697141  0.87188120  0.01219982    -0.14470
H1319       H  0.74825216  0.86035644  0.75845968     0.11660
H1320       H  0.72682784  0.91254157  0.86802454     0.11660
H1321       H  0.78219866  0.91231203  0.82883665     0.11660
H1322       H  0.80354442  0.86026044  0.71930809     0.11660
C1323       C  0.90069207  0.74418023  0.81115211    -0.14470
C1324       C  0.88658148  0.72702976  0.87604808     0.07680
C1325       C  0.87327323  0.74306404  0.94332861    -0.14470
C1326       C  0.87412187  0.77562648  0.94572096    -0.14470
C1327       C  0.88802456  0.79266657  0.88056237     0.07680
C1328       C  0.90125206  0.77675756  0.81321469    -0.14470
H1329       H  0.91150032  0.73241307  0.75918496     0.11660
H1330       H  0.86204147  0.73042617  0.99398998     0.11660
H1331       H  0.86335072  0.78753809  0.99752534     0.11660
H1332       H  0.91231469  0.78957316  0.76258010     0.11660
C1333       C  0.62795180  0.77579704  0.64487478    -0.14470
C1334       C  0.64197780  0.79230568  0.70967724     0.07680
C1335       C  0.65513912  0.77554820  0.77664198    -0.14470
C1336       C  0.65427162  0.74293174  0.77879773    -0.14470
C1337       C  0.64042290  0.72649534  0.71377665     0.07680
C1338       C  0.62728133  0.74316446  0.64680340    -0.14470
H1339       H  0.61723675  0.78811646  0.92652839     0.11660
H1340       H  0.66635597  0.78768474  0.82716235     0.11660
H1341       H  0.66499890  0.73052536  0.83032659     0.11660
H1342       H  0.61622330  0.73089345  0.59625123     0.11660
C1343       C  0.74195654  0.61783969  0.84217828    -0.14470
C1344       C  0.73216727  0.63232231  0.76778974     0.07680
C1345       C  0.75441099  0.64709078  0.71654469    -0.14470
C1346       C  0.78590801  0.64722153  0.73905280    -0.14470
C1347       C  0.79563124  0.63278703  0.81349233     0.07680
C1348       C  0.77341398  0.61801848  0.86468829    -0.14470
H1349       H  0.72530278  0.60613264  0.88272830     0.11660
H1350       H  0.74738711  0.65889549  0.65970356     0.11660
H1351       H  0.80260261  0.65907203  0.69897067     0.11660
H1352       H  0.78044305  0.60630780  0.92167221     0.11660
C1353       C  0.87296526  0.99407865  0.80073980    -0.14470
C1354       C  0.88738051  0.97995745  0.86978883     0.07680
C1355       C  0.90173735  0.99891123  0.92938609    -0.14470
C1356       C  0.90235400  0.03146890  0.91839402    -0.14470
C1357       C  0.88881506  0.04522625  0.84744832     0.07680
C1358       C  0.87372315  0.02624826  0.78970253    -0.14470
H1359       H  0.86136694  0.98018980  0.75417328     0.11660
H1360       H  0.91310318  0.98855409  0.98302758     0.11660
H1361       H  0.91413696  0.04573727  0.96375070     0.11660
H1362       H  0.86258608  0.03632340  0.73529229     0.11660
C1363       C  0.89970903  0.52052379  0.82483716    -0.14470
C1364       C  0.88541466  0.53947686  0.88478978     0.07680
C1365       C  0.87087158  0.52535398  0.95403316    -0.14470
C1366       C  0.87147863  0.49318103  0.96498832    -0.14470
C1367       C  0.88659323  0.47418764  0.90702698     0.07680
C1368       C  0.90022701  0.48795827  0.83582002    -0.14470
H1369       H  0.91115377  0.53089090  0.77101180     0.11660
H1370       H  0.85929458  0.53925423  0.00082756     0.11660
H1371       H  0.86026672  0.48313133  0.01962653     0.11660
H1372       H  0.91202266  0.47369925  0.79025347     0.11660
C1373       C  0.90557268  0.28161884  0.76224563    -0.14470
C1374       C  0.89120999  0.29150864  0.68799478     0.07680
C1375       C  0.87676630  0.26938173  0.97077381    -0.14470
C1376       C  0.87692056  0.23783266  0.66027844    -0.14470
C1377       C  0.89127578  0.22798828  0.73444608     0.07680
C1378       C  0.90563597  0.25007849  0.78519686    -0.14470
H1379       H  0.91702999  0.29823829  0.80219375     0.11660
H1380       H  0.86503413  0.27651341  0.91412017     0.11660
H1381       H  0.86542222  0.22116490  0.62058502     0.11660
H1382       H  0.91729802  0.24287124  0.84189591     0.11660
C1383       C  0.65714427  0.02597771  0.80155478    -0.14470
C1384       C  0.64213451  0.04539727  0.74348729     0.07680
C1385       C  0.62853847  0.03202709  0.67286795    -0.14470
C1386       C  0.62906910  0.99950425  0.66243284    -0.14470
C1387       C  0.64338976  0.98009097  0.72223485     0.07680
C1388       C  0.65780124  0.99380939  0.79108780    -0.14470
H1389       H  0.66826908  0.03570971  0.85584852     0.11660
H1390       H  0.61672574  0.04655746  0.62735422     0.11660
H1391       H  0.61766937  0.98951872  0.60893025     0.11660
H1392       H  0.66932600  0.97960394  0.83790315     0.11660
C1393       C  0.74862011  0.15103059  0.73251843    -0.14470
C1394       C  0.73216142  0.13766583  0.80001069     0.07680
C1395       C  0.74896596  0.12388137  0.86551339    -0.14470
C1396       C  0.78161407  0.12354066  0.86353169    -0.14470
C1397       C  0.79793670  0.13672243  0.79574719     0.07680
C1398       C  0.78120907  0.15044475  0.73026752    -0.14470
H1399       H  0.73626761  0.16209449  0.68147709     0.11660
H1400       H  0.73687065  0.11303382  0.91764525     0.11660
H1401       H  0.79415866  0.11258890  0.91441781     0.11660
H1402       H  0.79338371  0.16121072  0.67812431     0.11660
C1403       C  0.65597892  0.49317808  0.95208349    -0.14470
C1404       C  0.64118926  0.47371056  0.01082542     0.07680
C1405       C  0.62757953  0.48700397  0.74843430    -0.14470
C1406       C  0.62792177  0.51951729  0.75869736    -0.14470
C1407       C  0.64211776  0.53900931  0.69845873     0.07680
C1408       C  0.65651775  0.52536976  0.96246923    -0.14470
H1409       H  0.66703868  0.48344599  0.89746805     0.11660
H1410       H  0.61586528  0.47240259  0.79432421     0.11660
H1411       H  0.61651581  0.52942453  0.81252669     0.11660
H1412       H  0.66791657  0.53964264  0.91524116     0.11660
C1413       C  0.74694275  0.36760917  0.02845507    -0.14470
C1414       C  0.73071746  0.38098602  0.96101097     0.07680
C1415       C  0.74772184  0.39516896  0.89601362    -0.14470
C1416       C  0.78028222  0.39572015  0.89800546    -0.14470
C1417       C  0.79643776  0.38238256  0.96534477     0.07680
C1418       C  0.77955215  0.36842271  0.69742595    -0.14470
H1419       H  0.73440493  0.35637060  0.74594337     0.11660
H1420       H  0.73585145  0.40604736  0.84388638     0.11660
H1421       H  0.79290151  0.40684202  0.84714162     0.11660
H1422       H  0.79161423  0.35759656  0.74932147     0.11660
C1423       C  0.65017072  0.28170818  0.82671430    -0.14470
C1424       C  0.63558084  0.29123756  0.90069668     0.07680
C1425       C  0.62123653  0.26873891  0.95213041    -0.14470
C1426       C  0.62165946  0.23722376  0.93022273    -0.14470
C1427       C  0.63630269  0.22771273  0.85624580     0.07680
C1428       C  0.65060235  0.25023766  0.80484170    -0.14470
H1429       H  0.66171798  0.29856016  0.78635849     0.11660
H1430       H  0.60943813  0.27557140  0.00879882     0.11660
H1431       H  0.61023291  0.22032499  0.97069181     0.11660
H1432       H  0.66250010  0.24344992  0.74827395     0.11660
C1433       C  0.03177903  0.15190051  0.87924538    -0.14470
C1434       C  0.05091548  0.13686464  0.82125353     0.07680
C1435       C  0.03724239  0.12326021  0.75105278    -0.14470
C1436       C  0.00465789  0.12374572  0.74112508    -0.14470
C1437       C  0.98554740  0.13801450  0.80106085     0.07680
C1438       C  0.99959154  0.15250809  0.86929389    -0.14470
H1439       H  0.04174884  0.16305813  0.93316414     0.11660
H1440       H  0.05158196  0.11146072  0.70557872     0.11660
H1441       H  0.99439722  0.11231218  0.68807208     0.11660
H1442       H  0.98562210  0.16403820  0.91612053     0.11660
C1443       C  0.49253456  0.12206678  0.83320513    -0.14470
C1444       C  0.47918943  0.13567990  0.76181239     0.07680
C1445       C  0.49860388  0.15060005  0.70325143    -0.14470
C1446       C  0.53076229  0.15122323  0.71411718    -0.14470
C1447       C  0.54446743  0.13683715  0.78384413     0.07680
C1448       C  0.52506257  0.12253445  0.84401947    -0.14470
H1449       H  0.47797314  0.11032673  0.87908506     0.11660
H1450       H  0.48886229  0.16173914  0.64836498     0.11660
H1451       H  0.54496081  0.16274529  0.66698868     0.11660
H1452       H  0.53504843  0.11116590  0.89820115     0.11660
C1453       C  0.27453389  0.11832080  0.69855789    -0.14470
C1454       C  0.29683531  0.13293058  0.98055520     0.07680
C1455       C  0.28716560  0.14737772  0.90610682    -0.14470
C1456       C  0.25568293  0.14738396  0.88364540    -0.14470
C1457       C  0.23336248  0.13275621  0.93492208     0.07680
C1458       C  0.24304851  0.11829516  0.00939909    -0.14470
H1459       H  0.28152366  0.10658542  0.75553694     0.11660
H1460       H  0.30390677  0.15909327  0.86587367     0.11660
H1461       H  0.24872369  0.15917225  0.82671934     0.11660
H1462       H  0.22631482  0.10663923  0.04979713     0.11660
C1463       C  0.00282186  0.39721836  0.00656827    -0.14470
C1464       C  0.98375048  0.38272301  0.94734230     0.07680
C1465       C  0.99777704  0.36841165  0.87853300    -0.14470
C1466       C  0.02996887  0.36922714  0.86771493    -0.14470
C1467       C  0.04906212  0.38427718  0.92544167     0.07680
C1468       C  0.03535781  0.39787857  0.99584024    -0.14470
H1469       H  0.99257458  0.40852684  0.06003693     0.11660
H1470       H  0.98381535  0.35678015  0.83214198     0.11660
H1471       H  0.03997107  0.35808495  0.81362477     0.11660
H1472       H  0.04966653  0.40965025  0.04117964     0.11660
C1473       C  0.15427359  0.27682728  0.80736241    -0.14470
C1474       C  0.14035329  0.29321366  0.87262799     0.07680
C1475       C  0.12723579  0.27650399  0.93994311    -0.14470
C1476       C  0.12797652  0.24387382  0.94191477    -0.14470
C1477       C  0.14205128  0.22742123  0.87681377     0.07680
C1478       C  0.15521125  0.24422381  0.80955742    -0.14470
H1479       H  0.16498895  0.28926658  0.75556378     0.11660
H1480       H  0.11613586  0.28873608  0.99071148     0.11660
H1481       H  0.11726497  0.23151346  0.99383733     0.11660
H1482       H  0.16646037  0.23213295  0.75879106     0.11660
C1483       C  0.49836906  0.40278145  0.71558222    -0.14470
C1484       C  0.47840608  0.38892645  0.65778452     0.07680
C1485       C  0.49120790  0.37535506  0.91944207    -0.14470
C1486       C  0.52367996  0.37468308  0.90767562    -0.14470
C1487       C  0.54350973  0.38750651  0.96760671     0.07680
C1488       C  0.53055526  0.40194009  0.03750881    -0.14470
H1489       H  0.48906669  0.41395194  0.77048168     0.11660
H1490       H  0.47623244  0.36436861  0.87423641     0.11660
H1491       H  0.53331604  0.36310265  0.85383114     0.11660
H1492       H  0.54544290  0.41228090  0.08408932     0.11660
C1493       C  0.40241350  0.27669590  0.64752731    -0.14470
C1494       C  0.38909955  0.29245836  0.71498357     0.07680
C1495       C  0.37541916  0.27527500  0.78019802    -0.14470
C1496       C  0.37478298  0.24269811  0.77761413    -0.14470
C1497       C  0.38808473  0.22680198  0.71007266     0.07680
C1498       C  0.40208332  0.24411074  0.64528613    -0.14470
H1499       H  0.41327155  0.28964856  0.59682175     0.11660
H1500       H  0.36454184  0.28708846  0.83200803     0.11660
H1501       H  0.36363431  0.22994295  0.82819785     0.11660
H1502       H  0.41290501  0.23246170  0.59314928     0.11660
C1503       C  0.28555979  0.37095387  0.84686283    -0.14470
C1504       C  0.29576842  0.38505973  0.77221019     0.07680
C1505       C  0.27399931  0.39998249  0.72062022    -0.14470
C1506       C  0.24247791  0.40068476  0.74303891    -0.14470
C1507       C  0.23220555  0.38657710  0.81771058     0.07680
C1508       C  0.25399406  0.37157099  0.86922128    -0.14470
H1509       H  0.30194485  0.35910836  0.88739323     0.11660
H1510       H  0.28145474  0.41152664  0.66358468     0.11660
H1511       H  0.22616833  0.41253481  0.70226690     0.11660
H1512       H  0.24656521  0.36001335  0.92624919     0.11660
C1513       C  0.15676844  0.99388351  0.78302020    -0.14470
C1514       C  0.14178513  0.97440186  0.84144778     0.07680
C1515       C  0.12814601  0.98772675  0.91236924    -0.14470
C1516       C  0.12866741  0.02023755  0.92286600    -0.14470
C1517       C  0.14302563  0.03969896  0.86283521     0.07680
C1518       C  0.15741117  0.02604959  0.79355015    -0.14470
H1519       H  0.16794457  0.98421166  0.72849982     0.11660
H1520       H  0.11640199  0.97315121  0.95827386     0.11660
H1521       H  0.11728806  0.03017017  0.97670301     0.11660
H1522       H  0.16895301  0.04030253  0.74652321     0.11660
C1523       C  0.03120577  0.86797680  0.87535675    -0.14470
C1524       C  0.04507591  0.88233698  0.80544041     0.07680
C1525       C  0.02587634  0.89675655  0.74559554    -0.14470
C1526       C  0.99336932  0.89729284  0.75676215    -0.14470
C1527       C  0.97983313  0.88366546  0.82823308     0.07680
C1528       C  0.99903869  0.86869316  0.88662666    -0.14470
H1529       H  0.04527178  0.85640966  0.92228470     0.11660
H1530       H  0.03600187  0.90810662  0.69128734     0.11660
H1531       H  0.97895417  0.90901986  0.71093005     0.11660
H1532       H  0.98913859  0.85754190  0.94156269     0.11660
C1533       C  0.15530534  0.52664117  0.96599704    -0.14470
C1534       C  0.14021707  0.54601058  0.90797619     0.07680
C1535       C  0.12669130  0.53262834  0.83731208    -0.14470
C1536       C  0.12737039  0.50011601  0.82676445    -0.14470
C1537       C  0.14182614  0.48073201  0.88641909     0.07680
C1538       C  0.15616148  0.49448201  0.95535010    -0.14470
H1539       H  0.16636769  0.53642078  0.02032321     0.11660
H1540       H  0.11480721  0.54713579  0.79188619     0.11660
H1541       H  0.11600597  0.49011460  0.77323116     0.11660
H1542       H  0.16775345  0.48031142  0.00211705     0.11660
C1543       C  0.02910684  0.65240992  0.88361497    -0.14470
C1544       C  0.04291554  0.63801603  0.95318284     0.07680
C1545       C  0.02361461  0.62368066  0.01351526    -0.14470
C1546       C  0.99107173  0.62303039  0.00269490    -0.14470
C1547       C  0.97765240  0.63653672  0.93122190     0.07680
C1548       C  0.99696713  0.65163896  0.87279772    -0.14470
H1549       H  0.04323552  0.66398985  0.83643220     0.11660
H1550       H  0.03369877  0.61230871  0.73425976     0.11660
H1551       H  0.97657689  0.61116369  0.04848757     0.11660
H1552       H  0.98716783  0.66273426  0.81791935     0.11660
C1553       C  0.12239436  0.75062479  0.63794996    -0.14470
C1554       C  0.13678855  0.72817266  0.68887745     0.07680
C1555       C  0.15138401  0.73769072  0.76253206    -0.14470
C1556       C  0.15176044  0.76917877  0.78456978    -0.14470
C1557       C  0.13735442  0.79166109  0.73364983     0.07680
C1558       C  0.12272094  0.78209243  0.66000744    -0.14470
H1559       H  0.11058124  0.74377885  0.91488046     0.11660
H1560       H  0.16299352  0.72083171  0.80234153     0.11660
H1561       H  0.16366922  0.77600432  0.84082417     0.11660
H1562       H  0.11126032  0.79892383  0.61975794     0.11660
C1563       C  0.40180887  0.98777123  0.66546450    -0.14470
C1564       C  0.38837259  0.97385792  0.73670225     0.07680
C1565       C  0.37320771  0.99268149  0.79494541    -0.14470
C1566       C  0.37237943  0.02486086  0.78429709    -0.14470
C1567       C  0.38679055  0.03916686  0.71512706     0.07680
C1568       C  0.40110667  0.02036285  0.65482827    -0.14470
H1569       H  0.41367642  0.97362193  0.61979498     0.11660
H1570       H  0.36214510  0.98246722  0.84959528     0.11660
H1571       H  0.36078177  0.03862682  0.83134006     0.11660
H1572       H  0.41246888  0.03087123  0.60107292     0.11660
C1573       C  0.50457521  0.89579270  0.84607086    -0.14470
C1574       C  0.48564947  0.88157647  0.78603636     0.07680
C1575       C  0.49983396  0.86708640  0.71777244    -0.14470
C1576       C  0.53202505  0.86770757  0.70774934    -0.14470
C1577       C  0.55099234  0.88278160  0.76567643     0.07680
C1578       C  0.53717462  0.89632579  0.83602131    -0.14470
H1579       H  0.49416008  0.90719978  0.89915897     0.11660
H1580       H  0.48596690  0.85555217  0.67099881     0.11660
H1581       H  0.54212803  0.85656571  0.65377899     0.11660
H1582       H  0.55141125  0.90812811  0.88145062     0.11660
C1583       C  0.28181391  0.86901347  0.72346520    -0.14470
C1584       C  0.29801247  0.88239184  0.79018984     0.07680
C1585       C  0.28100609  0.89643946  0.85441786    -0.14470
C1586       C  0.24843689  0.89680776  0.85242446    -0.14470
C1587       C  0.23231217  0.88338937  0.78588054     0.07680
C1588       C  0.24920568  0.86962253  0.72118403    -0.14470
H1589       H  0.29435801  0.85784163  0.67331677     0.11660
H1590       H  0.29288227  0.90731369  0.90591998     0.11660
H1591       H  0.23578354  0.90780327  0.90268914     0.11660
H1592       H  0.23716690  0.85873406  0.66996195     0.11660
C1593       C  0.37101366  0.52599624  0.95458422    -0.14470
C1594       C  0.38614091  0.54495856  0.01239911     0.07680
C1595       C  0.39954568  0.53117178  0.75013069    -0.14470
C1596       C  0.39878676  0.49864448  0.76119524    -0.14470
C1597       C  0.38446999  0.47970103  0.70151437     0.07680
C1598       C  0.37017613  0.49379810  0.96563523    -0.14470
H1599       H  0.35997375  0.53609170  0.90006707     0.11660
H1600       H  0.41136129  0.54539261  0.79553783     0.11660
H1601       H  0.41011987  0.48828118  0.81488137     0.11660
H1602       H  0.35865606  0.47985939  0.91903578     0.11660
C1603       C  0.49776641  0.65101495  0.70799382    -0.14470
C1604       C  0.48386644  0.63667726  0.97264300     0.07680
C1605       C  0.50308837  0.62229285  0.91317301    -0.14470
C1606       C  0.53562272  0.62175827  0.92355120    -0.14470
C1607       C  0.54919894  0.63538410  0.66049744     0.07680
C1608       C  0.52995586  0.65033337  0.71844815    -0.14470
H1609       H  0.48370330  0.66257096  0.75457201     0.11660
H1610       H  0.49295685  0.61096322  0.85978467     0.11660
H1611       H  0.55002649  0.61004728  0.87804324     0.11660
H1612       H  0.53983988  0.66149236  0.77246659     0.11660
C1613       C  0.24714206  0.65090525  0.89302394    -0.14470
C1614       C  0.23069304  0.63747165  0.96047444     0.07680
C1615       C  0.24749987  0.62344064  0.69229077    -0.14470
C1616       C  0.28009546  0.62309768  0.02363023    -0.14470
C1617       C  0.29646291  0.63652117  0.95626543     0.07680
C1618       C  0.27976341  0.65031187  0.89078753    -0.14470
H1619       H  0.23477928  0.66208028  0.84217342     0.11660
H1620       H  0.23544958  0.61255421  0.74444518     0.11660
H1621       H  0.29257981  0.61207451  0.74123051     0.11660
H1622       H  0.29196135  0.66118878  0.83885182     0.11660
C1623       C  0.40633631  0.76940905  0.80399095    -0.14470
C1624       C  0.39192734  0.79147871  0.85500002     0.07680
C1625       C  0.37752040  0.78156206  0.92944037    -0.14470
C1626       C  0.37730678  0.74998976  0.95215457    -0.14470
C1627       C  0.39170075  0.72788830  0.90111125     0.07680
C1628       C  0.40617354  0.73785779  0.82672926    -0.14470
H1629       H  0.41801374  0.77661825  0.74700752     0.11660
H1630       H  0.36597203  0.79817159  0.96938914     0.11660
H1631       H  0.36552519  0.74280215  0.00899625     0.11660
H1632       H  0.41758607  0.72127719  0.78638519     0.11660
loop_ 
_geom_bond_atom_site_label_1 
_geom_bond_atom_site_label_2 
_geom_bond_distance 
_geom_bond_site_symmetry_2 
_ccdc_geom_bond_type 
O1            V9   1.907       .  S
O1           C11   1.267       .  A
O2         V1097   1.909       .  S
O2         C1100   1.266   1_554  A
O3            V9   1.887       .  S
O3           C13   1.263       .  A
O4            V9   1.890       .  S
O4           C14   1.262       .  A
O5           V10   1.910       .  S
O5           C14   1.268       .  A
O6           V10   1.912       .  S
O6           C13   1.268       .  A
O7           V10   1.886       .  S
O7           C12   1.263       .  A
O8           V10   1.889       .  S
O8           C11   1.262       .  A
V9          O546   1.909       .  S
V9           V10   2.082       .  T
C11         C539   1.474       .  S
C12         O546   1.266       .  A
C12         C506   1.473       .  S
C13         C516   1.479       .  S
C14         C529   1.472       .  S
O15          V23   1.904       .  S
O15          C25   1.266       .  A
O16          V23   1.911       .  S
O16          C26   1.266       .  A
O17          V23   1.882       .  S
O17          C27   1.262       .  A
O18          V23   1.892       .  S
O18          C28   1.262       .  A
O19          V24   1.905       .  S
O19          C28   1.267       .  A
O20          V24   1.914       .  S
O20          C27   1.267       .  A
O21          V24   1.883       .  S
O21          C26   1.262       .  A
O22          V24   1.891       .  S
O22          C25   1.262       .  A
V23          V24   2.087       .  T
C25         C536   1.472       .  S
C26         C476   1.472       .  S
C27         C486   1.477       .  S
C28         C496   1.476       .  S
O29          V37   1.907       .  S
O29         C583   1.267       .  A
O30          V37   1.914       .  S
O30          C40   1.267       .  A
O31          V37   1.882       .  S
O31          C41   1.262       .  A
O32          V37   1.892       .  S
O32          C42   1.262       .  A
O33          V38   1.907       .  S
O33        C1130   1.267   1_554  A
O34         V582   1.916       .  S
O34          C41   1.268       .  A
O35         V582   1.887       .  S
O35          C40   1.262       .  A
O36          V38   1.894       .  S
O36          C39   1.262   1_554  A
V37         V582   2.087       .  T
V38        O1122   1.916       .  S
V38        O1123   1.887   1_554  S
V38        V1125   2.087   1_554  T
C39        O1117   1.267       .  A
C39         C466   1.476   1_556  S
C40         C446   1.476       .  S
C41         C456   1.479       .  S
C42         O577   1.267       .  A
C42         C526   1.478       .  S
O43          V51   1.911       .  S
O43          C53   1.268       .  A
O44          V51   1.912       .  S
O44          C54   1.267       .  A
O45          V51   1.885       .  S
O45          C55   1.263       .  A
O46          V51   1.888       .  S
O46          C56   1.261       .  A
O47          V52   1.909       .  S
O47          C56   1.267       .  A
O48          V52   1.911       .  S
O48          C55   1.267       .  A
O49          V52   1.889       .  S
O49          C54   1.263       .  A
O50          V52   1.891       .  S
O50          C53   1.262       .  A
V51          V52   2.082       .  T
C53         C469   1.478       .  S
C54         C426   1.477       .  S
C55         C436   1.478       .  S
C56         C499   1.471       .  S
O57          V65   1.905   1_554  S
O57          C67   1.267       .  A
O58          V65   1.907       .  S
O58          C68   1.265   1_556  A
O59          V65   1.890       .  S
O59          C69   1.261   1_556  A
O60          V65   1.885       .  S
O60          C70   1.262   1_556  A
O61          V66   1.909       .  S
O61          C70   1.266       .  A
O62          V66   1.906       .  S
O62          C69   1.266       .  A
O63          V66   1.889       .  S
O63          C68   1.263       .  A
O64          V66   1.892       .  S
O64          C67   1.262       .  A
V65          V66   2.088   1_556  T
C67         C416   1.473       .  S
C68         C396   1.474   1_554  S
C69         C406   1.469       .  S
C70         C509   1.475       .  S
O71          V79   1.909       .  S
O71          C81   1.268       .  A
O72          V79   1.910       .  S
O72          C82   1.267       .  A
O73          V79   1.891       .  S
O73          C83   1.262       .  A
O74          V79   1.888       .  S
O74          C84   1.264       .  A
O75          V80   1.913       .  S
O75          C84   1.268       .  A
O76          V80   1.910       .  S
O76          C83   1.268       .  A
O77          V80   1.887       .  S
O77          C82   1.263       .  A
O78          V80   1.889       .  S
O78          C81   1.262       .  A
V79          V80   2.082       .  T
C81         C419   1.475       .  S
C82         C379   1.474       .  S
C83         C386   1.473       .  S
C84         C449   1.481       .  S
O85          V93   1.906       .  S
O85          C95   1.266       .  A
O86          V93   1.913       .  S
O86          C96   1.267       .  A
O87          V93   1.891       .  S
O87          C97   1.262       .  A
O88          V93   1.881       .  S
O88          C98   1.262       .  A
O89          V94   1.914       .  S
O89          C98   1.267   1_556  A
O90         V638   1.906       .  S
O90         C641   1.267       .  A
O91          V94   1.886   1_554  S
O91          C96   1.262       .  A
O92         V638   1.893       .  S
O92         C639   1.262       .  A
V93          V94   2.087   1_554  T
V94        O1178   1.906       .  S
V94        O1180   1.893       .  S
C95        O1180   1.262   1_554  A
C95        C1454   1.475   1_554  S
C96         C356   1.475       .  S
C97        O1178   1.267   1_554  A
C97         C409   1.477       .  S
C98         C479   1.477       .  S
O99         V107   1.907       .  S
O99         C109   1.267       .  A
O100        V107   1.914       .  S
O100        C110   1.267       .  A
O101        V107   1.889       .  S
O101        C111   1.262       .  A
O102        V107   1.887       .  S
O102        C112   1.263       .  A
O103        V108   1.913       .  S
O103        C112   1.267       .  A
O104        V108   1.910       .  S
O104        C111   1.268       .  A
O105        V108   1.885       .  S
O105        C110   1.262       .  A
O106        V108   1.893       .  S
O106        C109   1.262       .  A
V107        V108   2.085       .  T
C109        C369   1.476       .  S
C110        C346   1.475       .  S
C111        C389   1.478       .  S
C112        C429   1.480       .  S
O113        V121   1.910       .  S
O113        C123   1.268       .  A
O114       V1209   1.911       .  S
O114       C1212   1.266   1_554  A
O115        V121   1.885       .  S
O115        C125   1.261       .  A
O116        V121   1.894       .  S
O116        C126   1.263       .  A
O117        V122   1.903       .  S
O117        C126   1.267       .  A
O118        V122   1.912       .  S
O118        C125   1.267       .  A
O119        V122   1.889       .  S
O119        C124   1.263       .  A
O120        V122   1.891       .  S
O120        C123   1.262       .  A
V121        O658   1.911       .  S
V121        V122   2.086       .  T
C123        C336   1.477       .  S
C124        O658   1.266       .  A
C124        C316   1.475       .  S
C125        C399   1.470       .  S
C126        C326   1.477       .  S
O127        V135   1.907       .  S
O127        C137   1.267       .  A
O128        V135   1.914       .  S
O128        C138   1.267       .  A
O129        V135   1.886       .  S
O129        C139   1.263       .  A
O130        V135   1.889       .  S
O130        C140   1.262       .  A
O131        V136   1.911       .  S
O131        C140   1.268       .  A
O132        V136   1.913       .  S
O132        C139   1.267       .  A
O133        V136   1.887       .  S
O133        C138   1.262       .  A
O134        V136   1.895       .  S
O134        C137   1.262       .  A
V135        V136   2.085       .  T
C137        C339   1.477       .  S
C138        C296   1.477       .  S
C139        C359   1.479       .  S
C140        C306   1.478       .  S
O141        V149   1.907       .  S
O141        C151   1.267       .  A
O142        V149   1.909       .  S
O142        C152   1.266       .  A
O143        V149   1.886       .  S
O143        C153   1.263       .  A
O144        V149   1.889       .  S
O144        C154   1.261       .  A
O145        V150   1.909       .  S
O145       C1242   1.267   1_554  A
O146        V694   1.911       .  S
O146        C153   1.267       .  A
O147        V694   1.886       .  S
O147        C152   1.263       .  A
O148        V150   1.888       .  S
O148       C1239   1.261   1_554  A
V149        V694   2.082       .  T
V150       O1234   1.911       .  S
V150       O1235   1.886   1_554  S
V150       V1237   2.082   1_554  T
C151        O692   1.261       .  A
C151        C830   1.473       .  S
C152        C279   1.473       .  S
C153        C376   1.478       .  S
C154        O689   1.267       .  A
C154        C329   1.471       .  S
O155        V163   1.906       .  S
O155        C165   1.267       .  A
O156        V163   1.908       .  S
O156        C166   1.265       .  A
O157        V163   1.884       .  S
O157        C167   1.262       .  A
O158        V163   1.894       .  S
O158        C168   1.262       .  A
O159        V164   1.906       .  S
O159        C168   1.267       .  A
O160        V164   1.915       .  S
O160        C167   1.268       .  A
O161        V164   1.885       .  S
O161        C166   1.262       .  A
O162        V164   1.888       .  S
O162        C165   1.261       .  A
V163        V164   2.087       .  T
C165        C289   1.470       .  S
C166        C269   1.472       .  S
C167        C349   1.479       .  S
C168        C309   1.472       .  S
O169        V177   1.911   1_554  S
O169        C179   1.268       .  A
O170        V721   1.912       .  S
O170        C724   1.267       .  A
O171        V177   1.891       .  S
O171        C181   1.262   1_556  A
O172        V177   1.888       .  S
O172        C182   1.263   1_556  A
O173        V178   1.913       .  S
O173        C182   1.268       .  A
O174        V178   1.911       .  S
O174        C181   1.268       .  A
O175        V178   1.888       .  S
O175        C180   1.263       .  A
O176        V178   1.890       .  S
O176        C179   1.262       .  A
V177       O1258   1.912       .  S
V177        V178   2.082   1_556  T
C179        C256   1.477       .  S
C180       O1258   1.267   1_554  A
C180        C519   1.476   1_554  S
C181        C249   1.474       .  S
C182        C319   1.481       .  S
O183        V191   1.906       .  S
O183        C193   1.266       .  A
O184        V191   1.913       .  S
O184        C194   1.266       .  A
O185        V191   1.890       .  S
O185        C195   1.262       .  A
O186        V191   1.880       .  S
O186        C196   1.261       .  A
O187        V192   1.914       .  S
O187        C196   1.267       .  A
O188        V192   1.905       .  S
O188        C195   1.267       .  A
O189        V192   1.886       .  S
O189        C194   1.262       .  A
O190        V192   1.894       .  S
O190        C193   1.262       .  A
V191        V192   2.087       .  T
C193        C259   1.475       .  S
C194        C459   1.475       .  S
C195        C236   1.476       .  S
C196        C276   1.476       .  S
O197        V205   1.905       .  S
O197        C207   1.267       .  A
O198        V205   1.913       .  S
O198        C208   1.267       .  A
O199        V205   1.890       .  S
O199        C209   1.262       .  A
O200        V205   1.888       .  S
O200        C210   1.263       .  A
O201       V1294   1.913       .  S
O201        C210   1.267   1_556  A
O202        V206   1.911       .  S
O202        C753   1.268       .  A
O203       V1294   1.883   1_554  S
O203        C208   1.262       .  A
O204        V206   1.891       .  S
O204        C751   1.262       .  A
V205       V1294   2.086   1_554  T
V206        O745   1.913       .  S
V206        O747   1.883       .  S
V206        V749   2.086       .  T
C207       O1292   1.262   1_554  A
C207       C1314   1.474   1_554  S
C208        C489   1.473       .  S
C209       O1290   1.268   1_554  A
C209        C246   1.478       .  S
C210        C299   1.481       .  S
O211        V219   1.907       .  S
O211        C221   1.267       .  A
O212        V219   1.909       .  S
O212        C222   1.266       .  A
O213        V219   1.890       .  S
O213        C223   1.261       .  A
O214        V219   1.881       .  S
O214        C224   1.261       .  A
O215        V220   1.913       .  S
O215        C224   1.267       .  A
O216        V220   1.905       .  S
O216        C223   1.266       .  A
O217        V220   1.887       .  S
O217        C222   1.263       .  A
O218        V220   1.889       .  S
O218        C221   1.261       .  A
V219        V220   2.087       .  T
C221        C229   1.471       .  S
C222        C439   1.473       .  S
C223        C239   1.469       .  S
C224        C266   1.476       .  S
C225        H231   1.083       .  S
C225       C1314   1.402   1_554  A
C225       C1318   1.397       .  A
C226        C751   1.474       .  S
C226        C227   1.406       .  A
C226        C769   1.402       .  A
C227        H232   1.083       .  S
C227        C228   1.398       .  A
C228        H233   1.083       .  S
C228        C229   1.401       .  A
C229        C230   1.404       .  A
C230        H778   1.083       .  S
C230        C769   1.397       .  A
H234       C1318   1.083       .  S
C235        H241   1.083       .  S
C235        C236   1.403       .  A
C235        C240   1.397       .  A
C236        C237   1.407       .  A
C237        H242   1.083       .  S
C237        C238   1.397       .  A
C238        H243   1.083       .  S
C238        C239   1.400       .  A
C239        C240   1.403       .  A
C240        H244   1.083       .  S
C245       H1339   1.083       .  S
C245        C246   1.403   1_556  A
C245        C250   1.399       .  A
C246        C247   1.407       .  A
C247        H252   1.083       .  S
C247        C248   1.398       .  A
C248        H253   1.083       .  S
C248        C249   1.400       .  A
C249        C250   1.405   1_554  A
C250        H254   1.083       .  S
H251        C789   1.083       .  S
C255        H261   1.083       .  S
C255        C256   1.406       .  A
C255        C260   1.397       .  A
C256        C257   1.402       .  A
C257        H262   1.083   1_554  S
C257        C258   1.399       .  A
C258        H263   1.083       .  S
C258        C259   1.405       .  A
C259        C260   1.401       .  A
C260        H264   1.083       .  S
C265        H271   1.083       .  S
C265        C266   1.404       .  A
C265        C270   1.388   1_565  A
C266        C267   1.406       .  A
C267        H272   1.083       .  S
C267        C268   1.405   1_565  A
C268        H273   1.083       .  S
C268        C269   1.405       .  A
C269        C270   1.401       .  A
C270        H274   1.083       .  S
C275        H281   1.083       .  S
C275        C276   1.406       .  A
C275        C280   1.405       .  A
C276        C277   1.403       .  A
C277        H282   1.084       .  S
C277        C278   1.388       .  A
C278        H283   1.083       .  S
C278        C279   1.401       .  A
C279        C280   1.406       .  A
C280        H284   1.083       .  S
C285        H291   1.083       .  S
C285        C286   1.406       .  A
C285        C290   1.397       .  A
C286       C1239   1.473   1_554  S
C286       C1375   1.402   1_554  A
C287        H292   1.083       .  S
C287        C830   1.402       .  A
C287        C832   1.397       .  A
C288        H293   1.083       .  S
C288        C289   1.404   1_556  A
C288       C1375   1.397       .  A
C289        C290   1.400       .  A
C290        H294   1.083       .  S
C295        H301   1.083       .  S
C295        C296   1.402       .  A
C295        C300   1.391   1_545  A
C296        C297   1.405       .  A
C297        H302   1.083   1_554  S
C297        C298   1.406   1_544  A
C298        H303   1.083       .  S
C298        C299   1.407   1_556  A
C299        C300   1.404       .  A
C300        H304   1.083       .  S
C305        H311   1.083       .  S
C305        C306   1.407       .  A
C305        C310   1.397       .  A
C306        C307   1.403       .  A
C307        H312   1.083       .  S
C307        C308   1.400       .  A
C308        H313   1.083       .  S
C308        C309   1.404       .  A
C309        C310   1.400       .  A
C310        H314   1.083       .  S
C315        H321   1.083       .  S
C315        C316   1.401       .  A
C315        C320   1.392       .  A
C316        C861   1.405       .  A
C317        H322   1.083       .  S
C317        C318   1.405       .  A
C317       C1404   1.405       .  A
C318        H323   1.083       .  S
C318        C319   1.407       .  A
C319       C1408   1.405   1_554  A
C320        H324   1.083       .  S
C320        C863   1.405       .  A
C325        H875   1.083       .  S
C325        C326   1.407       .  A
C325        C874   1.399       .  A
C326        C327   1.403       .  A
C327        H332   1.083       .  S
C327        C328   1.396       .  A
C328        H333   1.083       .  S
C328        C329   1.404       .  A
C329        C874   1.401       .  A
C330        H334   1.083       .  S
C330       C1413   1.399       .  A
C330       C1417   1.401   1_554  A
H331       C1413   1.083       .  S
C335        H341   1.083       .  S
C335        C336   1.406       .  A
C335        C340   1.398       .  A
C336        C337   1.402       .  A
C337        H342   1.083       .  S
C337        C338   1.400       .  A
C338        H343   1.083       .  S
C338        C339   1.406       .  A
C339        C340   1.402       .  A
C340        H344   1.083       .  S
C345        H351   1.083       .  S
C345        C346   1.402       .  A
C345        C350   1.390   1_455  A
C346        C347   1.406       .  A
C347        H352   1.083       .  S
C347        C348   1.406       .  A
C348        H353   1.083   1_455  S
C348        C349   1.407   1_455  A
C349        C350   1.404       .  A
C350        H354   1.083       .  S
C355        H361   1.083       .  S
C355        C356   1.405       .  A
C355        C360   1.406       .  A
C356        C357   1.401       .  A
C357        H362   1.083   1_554  S
C357        C358   1.390       .  A
C358        H363   1.083       .  S
C358        C359   1.404       .  A
C359        C360   1.407       .  A
C360        H364   1.083       .  S
C365        H371   1.083       .  S
C365       C1454   1.402   1_554  A
C365       C1458   1.399       .  A
C366        C639   1.475       .  S
C366        C367   1.405       .  A
C366        C909   1.402       .  A
C367        H372   1.083       .  S
C367        C368   1.398       .  A
C368        H373   1.083       .  S
C368        C369   1.402       .  A
C369        C370   1.406       .  A
C370        H374   1.083       .  S
C370        C909   1.399       .  A
C375        H381   1.083   1_455  S
C375        C376   1.407   1_455  A
C375        C380   1.405       .  A
C376        C377   1.404       .  A
C377        H382   1.083       .  S
C377        C378   1.390   1_655  A
C378        H383   1.083       .  S
C378        C379   1.402       .  A
C379        C380   1.405       .  A
C380        H384   1.083       .  S
C385        H391   1.083       .  S
C385        C386   1.400       .  A
C385        C390   1.398       .  A
C386        C387   1.405       .  A
C387        H392   1.083       .  S
C387        C388   1.399       .  A
C388        H393   1.083       .  S
C388        C389   1.403       .  A
C389        C390   1.407       .  A
C390        H394   1.083       .  S
C395        H401   1.083       .  S
C395        C396   1.402   1_554  A
C395       C1488   1.391       .  A
C396       C1485   1.406       .  A
C397        H402   1.083       .  S
C397        C398   1.404       .  A
C397        C940   1.406       .  A
C398        H403   1.083       .  S
C398        C399   1.403       .  A
C399        C400   1.401       .  A
C400        H404   1.084       .  S
C400        C939   1.391       .  A
C405        H411   1.083       .  S
C405        C406   1.403   1_556  A
C405        C410   1.398       .  A
C406        C407   1.400       .  A
C407        H412   1.083       .  S
C407        C408   1.398       .  A
C408        H413   1.083       .  S
C408        C409   1.407       .  A
C409        C410   1.403   1_554  A
C410        H414   1.083       .  S
C415        H421   1.083       .  S
C415        C416   1.405       .  A
C415        C420   1.399       .  A
C416        C417   1.401       .  A
C417        H422   1.083   1_554  S
C417        C418   1.397       .  A
C418        H423   1.083       .  S
C418        C419   1.406       .  A
C419        C420   1.402       .  A
C420        H424   1.083       .  S
C425        H431   1.083       .  S
C425        C426   1.402       .  A
C425        C430   1.391   1_565  A
C426        C427   1.406       .  A
C427        H432   1.083       .  S
C427        C428   1.406   1_565  A
C428        H433   1.083       .  S
C428        C429   1.407       .  A
C429        C430   1.404       .  A
C430        H434   1.083       .  S
C435        H441   1.083       .  S
C435        C436   1.404       .  A
C435        C440   1.390   1_455  A
C436        C437   1.406       .  A
C437        H442   1.083       .  S
C437        C438   1.404   1_455  A
C438        H443   1.083       .  S
C438        C439   1.405       .  A
C439        C440   1.401       .  A
C440        H444   1.083       .  S
C445        H451   1.083       .  S
C445        C446   1.402       .  A
C445        C450   1.391       .  A
C446        C447   1.405       .  A
C447        H452   1.083       .  S
C447        C448   1.406       .  A
C448        H453   1.083       .  S
C448        C449   1.407       .  A
C449        C450   1.404       .  A
C450        H454   1.083       .  S
C455        H461   1.084       .  S
C455        C456   1.404       .  A
C455        C460   1.390   1_455  A
C456        C457   1.407       .  A
C457       H1006   1.083       .  S
C457        C458   1.407   1_455  A
C458        H463   1.083       .  S
C458        C459   1.406       .  A
C459        C460   1.401       .  A
C460        H464   1.084       .  S
H462       C1545   1.083       .  S
C465       H1559   1.083       .  S
C465        C466   1.401   1_556  A
C465        C470   1.398       .  A
C466        C467   1.405       .  A
C467        H472   1.083       .  S
C467        C468   1.399       .  A
C468        H473   1.083       .  S
C468        C469   1.402       .  A
C469        C470   1.407   1_554  A
C470        H474   1.083       .  S
H471       C1009   1.083       .  S
C475        H481   1.083       .  S
C475        C476   1.405   1_556  A
C475        C480   1.406   1_565  A
C476        C477   1.401       .  A
C477        H482   1.084       .  S
C477        C478   1.388   1_565  A
C478        H483   1.084       .  S
C478        C479   1.403       .  A
C479        C480   1.407   1_554  A
C480        H484   1.083       .  S
C485        H491   1.083       .  S
C485        C486   1.407       .  A
C485        C490   1.406       .  A
C486        C487   1.403       .  A
C487        H492   1.084       .  S
C487        C488   1.389       .  A
C488        H493   1.084   1_554  S
C488        C489   1.401       .  A
C489        C490   1.405       .  A
C490        H494   1.083       .  S
C495        H501   1.083       .  S
C495        C496   1.407       .  A
C495        C500   1.398       .  A
C496        C497   1.403       .  A
C497        H502   1.083       .  S
C497        C498   1.396       .  A
C498        H503   1.083       .  S
C498        C499   1.404       .  A
C499        C500   1.400       .  A
C500        H504   1.083       .  S
C505        H511   1.083       .  S
C505        C506   1.402       .  A
C505        C510   1.390       .  A
C506       C1051   1.405       .  A
C507        H512   1.083       .  S
C507        C508   1.404       .  A
C507       C1594   1.405       .  A
C508        H513   1.083       .  S
C508        C509   1.406       .  A
C509       C1598   1.403   1_554  A
C510        H514   1.084       .  S
C510       C1053   1.403       .  A
C515        H521   1.083       .  S
C515        C520   1.391       .  A
C515       C1604   1.404   1_554  A
C516        C517   1.407       .  A
C516       C1059   1.404       .  A
C517        H522   1.083       .  S
C517        C518   1.405       .  A
C518        H523   1.083       .  S
C518       C1063   1.405       .  A
C519        C520   1.402   1_556  A
C519       C1606   1.405       .  A
C520        H524   1.083       .  S
C525        H531   1.083       .  S
C525        C526   1.407       .  A
C525        C530   1.399       .  A
C526       C1071   1.403       .  A
C527        H532   1.083       .  S
C527       C1614   1.403   1_554  A
C527       C1616   1.397       .  A
C528       H1077   1.083       .  S
C528        C529   1.404       .  A
C528       C1071   1.397       .  A
C529        C530   1.401       .  A
C530        H534   1.083       .  S
H533       C1616   1.083       .  S
C535        H541   1.083       .  S
C535        C536   1.401       .  A
C535        C540   1.397       .  A
C536        C537   1.405       .  A
C537        H542   1.083       .  S
C537        C538   1.397       .  A
C538        H543   1.083       .  S
C538        C539   1.402       .  A
C539        C540   1.406       .  A
C540        H544   1.083       .  S
O545        V553   1.907       .  S
O545        C555   1.267       .  A
O547        V553   1.887       .  S
O547        C557   1.263       .  A
O548        V553   1.890       .  S
O548        C558   1.262       .  A
O549        V554   1.910       .  S
O549        C558   1.268       .  A
O550        V554   1.912       .  S
O550        C557   1.268       .  A
O551        V554   1.886       .  S
O551        C556   1.263       .  A
O552        V554   1.889       .  S
O552        C555   1.262       .  A
V553       O1090   1.909       .  S
V553        V554   2.082       .  T
C555       C1083   1.474       .  S
C556       O1090   1.266       .  A
C556       C1050   1.473       .  S
C557       C1060   1.479       .  S
C558       C1073   1.472       .  S
O559        V567   1.904       .  S
O559        C569   1.266       .  A
O560        V567   1.911       .  S
O560        C570   1.266       .  A
O561        V567   1.882       .  S
O561        C571   1.262       .  A
O562        V567   1.892       .  S
O562        C572   1.262       .  A
O563        V568   1.905       .  S
O563        C572   1.267       .  A
O564        V568   1.914       .  S
O564        C571   1.267       .  A
O565        V568   1.883       .  S
O565        C570   1.262       .  A
O566        V568   1.891       .  S
O566        C569   1.262       .  A
V567        V568   2.087       .  T
C569       C1080   1.472       .  S
C570       C1020   1.472       .  S
C571       C1030   1.477       .  S
C572       C1040   1.476       .  S
O573        V581   1.907       .  S
O573       C1127   1.267       .  A
O574        V581   1.914       .  S
O574        C584   1.267       .  A
O575        V581   1.882       .  S
O575        C585   1.262       .  A
O576        V581   1.892       .  S
O576        C586   1.262       .  A
O577        V582   1.907       .  S
O578       V1126   1.916       .  S
O578        C585   1.268       .  A
O579       V1126   1.887       .  S
O579        C584   1.262       .  A
O580        V582   1.894       .  S
O580        C583   1.262       .  A
V581       V1126   2.087       .  T
C583       C1010   1.476       .  S
C584        C990   1.476       .  S
C585       C1000   1.479       .  S
C586       O1121   1.267       .  A
C586       C1070   1.478       .  S
O587        V595   1.911       .  S
O587        C597   1.268       .  A
O588        V595   1.912       .  S
O588        C598   1.267       .  A
O589        V595   1.885       .  S
O589        C599   1.263       .  A
O590        V595   1.888       .  S
O590        C600   1.261       .  A
O591        V596   1.909       .  S
O591        C600   1.267       .  A
O592        V596   1.911       .  S
O592        C599   1.267       .  A
O593        V596   1.889       .  S
O593        C598   1.263       .  A
O594        V596   1.891       .  S
O594        C597   1.262       .  A
V595        V596   2.082       .  T
C597       C1013   1.478       .  S
C598        C970   1.477       .  S
C599        C980   1.478       .  S
C600       C1043   1.471       .  S
O601        V609   1.905       .  S
O601        C611   1.267       .  A
O602        V609   1.907       .  S
O602        C612   1.265       .  A
O603        V609   1.890       .  S
O603        C613   1.261       .  A
O604        V609   1.885       .  S
O604        C614   1.262       .  A
O605        V610   1.909       .  S
O605        C614   1.266       .  A
O606        V610   1.906       .  S
O606        C613   1.266       .  A
O607        V610   1.889       .  S
O607        C612   1.263       .  A
O608        V610   1.892       .  S
O608        C611   1.262       .  A
V609        V610   2.088       .  T
C611        C960   1.473       .  S
C612        C940   1.474       .  S
C613        C950   1.469       .  S
C614       C1053   1.475       .  S
O615        V623   1.909       .  S
O615        C625   1.268       .  A
O616        V623   1.910       .  S
O616        C626   1.267       .  A
O617        V623   1.891       .  S
O617        C627   1.262       .  A
O618        V623   1.888       .  S
O618        C628   1.264       .  A
O619        V624   1.913       .  S
O619        C628   1.268       .  A
O620        V624   1.910       .  S
O620        C627   1.268       .  A
O621        V624   1.887       .  S
O621        C626   1.263       .  A
O622        V624   1.889       .  S
O622        C625   1.262       .  A
V623        V624   2.082       .  T
C625        C963   1.475       .  S
C626        C923   1.474       .  S
C627        C930   1.473       .  S
C628        C993   1.481       .  S
O629        V637   1.906       .  S
O629        C639   1.266       .  A
O630        V637   1.913       .  S
O630        C640   1.267       .  A
O631        V637   1.891       .  S
O631        C641   1.262       .  A
O632        V637   1.881       .  S
O632        C642   1.262       .  A
O633        V638   1.914       .  S
O633        C642   1.267       .  A
O634       V1182   1.906       .  S
O634       C1185   1.267       .  A
O635        V638   1.886       .  S
O635        C640   1.262       .  A
O636       V1182   1.893       .  S
O636       C1183   1.262       .  A
V637        V638   2.087       .  T
C640        C900   1.475       .  S
C641        C953   1.477       .  S
C642       C1023   1.477       .  S
O643        V651   1.907       .  S
O643        C653   1.267       .  A
O644        V651   1.914       .  S
O644        C654   1.267       .  A
O645        V651   1.889       .  S
O645        C655   1.262       .  A
O646        V651   1.887       .  S
O646        C656   1.263       .  A
O647        V652   1.913       .  S
O647        C656   1.267       .  A
O648        V652   1.910       .  S
O648        C655   1.268       .  A
O649        V652   1.885       .  S
O649        C654   1.262       .  A
O650        V652   1.893       .  S
O650        C653   1.262       .  A
V651        V652   2.085       .  T
C653        C913   1.476       .  S
C654        C890   1.475       .  S
C655        C933   1.478       .  S
C656        C973   1.480       .  S
O657        V665   1.910       .  S
O657        C667   1.268       .  A
O659        V665   1.885       .  S
O659        C669   1.261       .  A
O660        V665   1.894       .  S
O660        C670   1.263       .  A
O661        V666   1.903       .  S
O661        C670   1.267       .  A
O662        V666   1.912       .  S
O662        C669   1.267       .  A
O663        V666   1.889       .  S
O663        C668   1.263       .  A
O664        V666   1.891       .  S
O664        C667   1.262       .  A
V665       O1202   1.911       .  S
V665        V666   2.086       .  T
C667        C880   1.477       .  S
C668       O1202   1.266       .  A
C668        C860   1.475       .  S
C669        C943   1.470       .  S
C670        C870   1.477       .  S
O671        V679   1.907       .  S
O671        C681   1.267       .  A
O672        V679   1.914       .  S
O672        C682   1.267       .  A
O673        V679   1.886       .  S
O673        C683   1.263       .  A
O674        V679   1.889       .  S
O674        C684   1.262       .  A
O675        V680   1.911       .  S
O675        C684   1.268       .  A
O676        V680   1.913       .  S
O676        C683   1.267       .  A
O677        V680   1.887       .  S
O677        C682   1.262       .  A
O678        V680   1.895       .  S
O678        C681   1.262       .  A
V679        V680   2.085       .  T
C681        C883   1.477       .  S
C682        C840   1.477       .  S
C683        C903   1.479       .  S
C684        C850   1.478       .  S
O685        V693   1.907       .  S
O685        C695   1.267       .  A
O686        V693   1.909       .  S
O686        C696   1.266       .  A
O687        V693   1.886       .  S
O687        C697   1.263       .  A
O688        V693   1.889       .  S
O688        C698   1.261       .  A
O689        V694   1.909       .  S
O690       V1238   1.911       .  S
O690        C697   1.267       .  A
O691       V1238   1.886       .  S
O691        C696   1.263       .  A
O692        V694   1.888       .  S
V693       V1238   2.082       .  T
C695       O1236   1.261       .  A
C695       C1374   1.473       .  S
C696        C823   1.473       .  S
C697        C920   1.478       .  S
C698       O1233   1.267       .  A
C698        C873   1.471       .  S
O699        V707   1.906       .  S
O699        C709   1.267       .  A
O700        V707   1.908       .  S
O700        C710   1.265       .  A
O701        V707   1.884       .  S
O701        C711   1.262       .  A
O702        V707   1.894       .  S
O702        C712   1.262       .  A
O703        V708   1.906       .  S
O703        C712   1.267       .  A
O704        V708   1.915       .  S
O704        C711   1.268       .  A
O705        V708   1.885       .  S
O705        C710   1.262       .  A
O706        V708   1.888       .  S
O706        C709   1.261       .  A
V707        V708   2.087       .  T
C709        C833   1.470       .  S
C710        C813   1.472       .  S
C711        C893   1.479       .  S
C712        C853   1.472       .  S
O713        V721   1.911       .  S
O713        C723   1.268       .  A
O714       V1265   1.912       .  S
O714       C1268   1.267       .  A
O715        V721   1.891       .  S
O715        C725   1.262       .  A
O716        V721   1.888       .  S
O716        C726   1.263       .  A
O717        V722   1.913       .  S
O717        C726   1.268       .  A
O718        V722   1.911       .  S
O718        C725   1.268       .  A
O719        V722   1.888       .  S
O719        C724   1.263       .  A
O720        V722   1.890       .  S
O720        C723   1.262       .  A
V721        V722   2.082       .  T
C723        C800   1.477       .  S
C724       C1063   1.476       .  S
C725        C793   1.474       .  S
C726        C863   1.481       .  S
O727        V735   1.906       .  S
O727        C737   1.266       .  A
O728        V735   1.913       .  S
O728        C738   1.266       .  A
O729        V735   1.890       .  S
O729        C739   1.262       .  A
O730        V735   1.880       .  S
O730        C740   1.261       .  A
O731        V736   1.914       .  S
O731        C740   1.267       .  A
O732        V736   1.905       .  S
O732        C739   1.267       .  A
O733        V736   1.886       .  S
O733        C738   1.262       .  A
O734        V736   1.894       .  S
O734        C737   1.262       .  A
V735        V736   2.087       .  T
C737        C803   1.475       .  S
C738       C1003   1.475       .  S
C739        C780   1.476       .  S
C740        C820   1.476       .  S
O741        V749   1.905       .  S
O741        C751   1.267       .  A
O742        V749   1.913       .  S
O742        C752   1.267       .  A
O743        V749   1.890       .  S
O743        C753   1.262       .  A
O744        V749   1.888       .  S
O744        C754   1.263       .  A
O745        C754   1.267       .  A
O746        V750   1.911       .  S
O746       C1297   1.268       .  A
O747        C752   1.262       .  A
O748        V750   1.891       .  S
O748       C1295   1.262       .  A
V750       O1289   1.913       .  S
V750       O1291   1.883       .  S
V750       V1293   2.086       .  T
C752       C1033   1.473       .  S
C753        C790   1.478       .  S
C754        C843   1.481       .  S
O755        V763   1.907       .  S
O755        C765   1.267       .  A
O756        V763   1.909       .  S
O756        C766   1.266       .  A
O757        V763   1.890       .  S
O757        C767   1.261       .  A
O758        V763   1.881       .  S
O758        C768   1.261       .  A
O759        V764   1.913       .  S
O759        C768   1.267       .  A
O760        V764   1.905       .  S
O760        C767   1.266       .  A
O761        V764   1.887       .  S
O761        C766   1.263       .  A
O762        V764   1.889       .  S
O762        C765   1.261       .  A
V763        V764   2.087       .  T
C765        C773   1.471       .  S
C766        C983   1.473       .  S
C767        C783   1.469       .  S
C768        C810   1.476       .  S
C769        H775   1.083       .  S
C770       C1295   1.474       .  S
C770       C1313   1.402       .  A
C770        C771   1.406       .  A
C771        H776   1.083       .  S
C771        C772   1.398       .  A
C772        H777   1.083       .  S
C772        C773   1.401       .  A
C773        C774   1.404       .  A
C774       H1322   1.083       .  S
C774       C1313   1.397       .  A
C779        H785   1.083       .  S
C779        C780   1.403       .  A
C779        C784   1.397       .  A
C780        C781   1.407       .  A
C781        H786   1.083       .  S
C781        C782   1.397       .  A
C782        H787   1.083       .  S
C782        C783   1.400       .  A
C783        C784   1.403       .  A
C784        H788   1.083       .  S
C789        C790   1.403       .  A
C789        C794   1.399       .  A
C790        C791   1.407       .  A
C791        H796   1.083       .  S
C791        C792   1.398       .  A
C792        H797   1.083       .  S
C792        C793   1.400       .  A
C793        C794   1.405       .  A
C794        H798   1.083       .  S
H795       C1333   1.083       .  S
C799        H805   1.083       .  S
C799        C800   1.406       .  A
C799        C804   1.397       .  A
C800        C801   1.402       .  A
C801        H806   1.083       .  S
C801        C802   1.399       .  A
C802        H807   1.083       .  S
C802        C803   1.405       .  A
C803        C804   1.401       .  A
C804        H808   1.083       .  S
C809        H815   1.083       .  S
C809        C810   1.404       .  A
C809        C814   1.388   1_565  A
C810        C811   1.406       .  A
C811        H816   1.083       .  S
C811        C812   1.405   1_565  A
C812        H817   1.083       .  S
C812        C813   1.405       .  A
C813        C814   1.401       .  A
C814        H818   1.083       .  S
C819        H825   1.083       .  S
C819        C820   1.406       .  A
C819        C824   1.405       .  A
C820        C821   1.403       .  A
C821        H826   1.084       .  S
C821        C822   1.388       .  A
C822        H827   1.083       .  S
C822        C823   1.401       .  A
C823        C824   1.406       .  A
C824        H828   1.083       .  S
C829        H835   1.083       .  S
C829        C830   1.406       .  A
C829        C834   1.397       .  A
C831        H836   1.083       .  S
C831       C1374   1.402       .  A
C831       C1376   1.397       .  A
C832        H837   1.083       .  S
C832        C833   1.404       .  A
C833        C834   1.400       .  A
C834        H838   1.083       .  S
C839        H845   1.083       .  S
C839        C840   1.402       .  A
C839        C844   1.391   1_545  A
C840        C841   1.405       .  A
C841        H846   1.083       .  S
C841        C842   1.406   1_545  A
C842        H847   1.083       .  S
C842        C843   1.407       .  A
C843        C844   1.404       .  A
C844        H848   1.083       .  S
C849        H855   1.083       .  S
C849        C850   1.407       .  A
C849        C854   1.397       .  A
C850        C851   1.403       .  A
C851        H856   1.083       .  S
C851        C852   1.400       .  A
C852        H857   1.083       .  S
C852        C853   1.404       .  A
C853        C854   1.400       .  A
C854        H858   1.083       .  S
C859        H865   1.083       .  S
C859        C860   1.401       .  A
C859        C864   1.392       .  A
C860       C1405   1.405       .  A
C861        H866   1.083       .  S
C861        C862   1.405       .  A
C862        H867   1.083       .  S
C862        C863   1.407       .  A
C864        H868   1.083       .  S
C864       C1407   1.405       .  A
C869       H1419   1.083       .  S
C869        C870   1.407       .  A
C869       C1418   1.399       .  A
C870        C871   1.403       .  A
C871        H876   1.083       .  S
C871        C872   1.396       .  A
C872        H877   1.083       .  S
C872        C873   1.404       .  A
C873       C1418   1.401       .  A
C874        H878   1.083       .  S
C879        H885   1.083       .  S
C879        C880   1.406       .  A
C879        C884   1.398       .  A
C880        C881   1.402       .  A
C881        H886   1.083       .  S
C881        C882   1.400       .  A
C882        H887   1.083       .  S
C882        C883   1.406       .  A
C883        C884   1.402       .  A
C884        H888   1.083       .  S
C889        H895   1.083       .  S
C889        C890   1.402       .  A
C889        C894   1.390   1_455  A
C890        C891   1.406       .  A
C891        H896   1.083       .  S
C891        C892   1.406       .  A
C892        H897   1.083   1_455  S
C892        C893   1.407   1_455  A
C893        C894   1.404       .  A
C894        H898   1.083       .  S
C899        H905   1.083       .  S
C899        C900   1.405       .  A
C899        C904   1.406       .  A
C900        C901   1.401       .  A
C901        H906   1.083       .  S
C901        C902   1.390       .  A
C902        H907   1.083       .  S
C902        C903   1.404       .  A
C903        C904   1.407       .  A
C904        H908   1.083       .  S
C909        H915   1.083       .  S
C910       C1183   1.475       .  S
C910       C1453   1.402       .  A
C910        C911   1.405       .  A
C911        H916   1.083       .  S
C911        C912   1.398       .  A
C912        H917   1.083       .  S
C912        C913   1.402       .  A
C913        C914   1.406       .  A
C914        H918   1.083       .  S
C914       C1453   1.399       .  A
C919        H925   1.083   1_455  S
C919        C920   1.407   1_455  A
C919        C924   1.405       .  A
C920        C921   1.404       .  A
C921        H926   1.083       .  S
C921        C922   1.390   1_655  A
C922        H927   1.083       .  S
C922        C923   1.402       .  A
C923        C924   1.405       .  A
C924        H928   1.083       .  S
C929        H935   1.083       .  S
C929        C930   1.400       .  A
C929        C934   1.398       .  A
C930        C931   1.405       .  A
C931        H936   1.083       .  S
C931        C932   1.399       .  A
C932        H937   1.083       .  S
C932        C933   1.403       .  A
C933        C934   1.407       .  A
C934        H938   1.083       .  S
C939        H945   1.083       .  S
C939        C940   1.402       .  A
C941        H946   1.083       .  S
C941       C1484   1.406       .  A
C941        C942   1.404       .  A
C942        H947   1.083       .  S
C942        C943   1.403       .  A
C943        C944   1.401       .  A
C944        H948   1.084       .  S
C944       C1483   1.391       .  A
C949        H955   1.083       .  S
C949        C950   1.403       .  A
C949        C954   1.398       .  A
C950        C951   1.400       .  A
C951        H956   1.083       .  S
C951        C952   1.398       .  A
C952        H957   1.083       .  S
C952        C953   1.407       .  A
C953        C954   1.403       .  A
C954        H958   1.083       .  S
C959        H965   1.083       .  S
C959        C960   1.405       .  A
C959        C964   1.399       .  A
C960        C961   1.401       .  A
C961        H966   1.083       .  S
C961        C962   1.397       .  A
C962        H967   1.083       .  S
C962        C963   1.406       .  A
C963        C964   1.402       .  A
C964        H968   1.083       .  S
C969        H975   1.083       .  S
C969        C970   1.402       .  A
C969        C974   1.391   1_565  A
C970        C971   1.406       .  A
C971        H976   1.083       .  S
C971        C972   1.406   1_565  A
C972        H977   1.083       .  S
C972        C973   1.407       .  A
C973        C974   1.404       .  A
C974        H978   1.083       .  S
C979        H985   1.083       .  S
C979        C980   1.404       .  A
C979        C984   1.390   1_455  A
C980        C981   1.406       .  A
C981        H986   1.083       .  S
C981        C982   1.404   1_455  A
C982        H987   1.083       .  S
C982        C983   1.405       .  A
C983        C984   1.401       .  A
C984        H988   1.083       .  S
C989        H995   1.083       .  S
C989        C990   1.402       .  A
C989        C994   1.391       .  A
C990        C991   1.405       .  A
C991        H996   1.083       .  S
C991        C992   1.406       .  A
C992        H997   1.083       .  S
C992        C993   1.407       .  A
C993        C994   1.404       .  A
C994        H998   1.083       .  S
C999       H1005   1.084       .  S
C999       C1000   1.404       .  A
C999       C1004   1.390   1_455  A
C1000      C1001   1.407       .  A
C1001      H1550   1.083       .  S
C1001      C1002   1.407   1_455  A
C1002      H1007   1.083       .  S
C1002      C1003   1.406       .  A
C1003      C1004   1.401       .  A
C1004      H1008   1.084       .  S
C1009      C1010   1.401       .  A
C1009      C1014   1.398       .  A
C1010      C1011   1.405       .  A
C1011      H1016   1.083       .  S
C1011      C1012   1.399       .  A
C1012      H1017   1.083       .  S
C1012      C1013   1.402       .  A
C1013      C1014   1.407       .  A
C1014      H1018   1.083       .  S
H1015      C1553   1.083       .  S
C1019      H1025   1.083       .  S
C1019      C1020   1.405       .  A
C1019      C1024   1.406   1_565  A
C1020      C1021   1.401       .  A
C1021      H1026   1.084       .  S
C1021      C1022   1.388   1_565  A
C1022      H1027   1.084       .  S
C1022      C1023   1.403       .  A
C1023      C1024   1.407       .  A
C1024      H1028   1.083       .  S
C1029      H1035   1.083       .  S
C1029      C1030   1.407       .  A
C1029      C1034   1.406       .  A
C1030      C1031   1.403       .  A
C1031      H1036   1.084       .  S
C1031      C1032   1.389       .  A
C1032      H1037   1.084       .  S
C1032      C1033   1.401       .  A
C1033      C1034   1.405       .  A
C1034      H1038   1.083       .  S
C1039      H1045   1.083       .  S
C1039      C1040   1.407       .  A
C1039      C1044   1.398       .  A
C1040      C1041   1.403       .  A
C1041      H1046   1.083       .  S
C1041      C1042   1.396       .  A
C1042      H1047   1.083       .  S
C1042      C1043   1.404       .  A
C1043      C1044   1.400       .  A
C1044      H1048   1.083       .  S
C1049      H1055   1.083       .  S
C1049      C1050   1.402       .  A
C1049      C1054   1.390       .  A
C1050      C1595   1.405       .  A
C1051      H1056   1.083       .  S
C1051      C1052   1.404       .  A
C1052      H1057   1.083       .  S
C1052      C1053   1.406       .  A
C1054      H1058   1.084       .  S
C1054      C1597   1.403       .  A
C1059      H1065   1.083       .  S
C1059      C1064   1.391       .  A
C1060      C1603   1.404       .  A
C1060      C1061   1.407       .  A
C1061      H1066   1.083       .  S
C1061      C1062   1.405       .  A
C1062      H1067   1.083       .  S
C1062      C1607   1.405       .  A
C1063      C1064   1.402       .  A
C1064      H1068   1.083       .  S
C1069      H1075   1.083       .  S
C1069      C1070   1.407       .  A
C1069      C1074   1.399       .  A
C1070      C1615   1.403       .  A
C1071      H1076   1.083       .  S
C1072      H1621   1.083       .  S
C1072      C1615   1.397       .  A
C1072      C1073   1.404       .  A
C1073      C1074   1.401       .  A
C1074      H1078   1.083       .  S
C1079      H1085   1.083       .  S
C1079      C1080   1.401       .  A
C1079      C1084   1.397       .  A
C1080      C1081   1.405       .  A
C1081      H1086   1.083       .  S
C1081      C1082   1.397       .  A
C1082      H1087   1.083       .  S
C1082      C1083   1.402       .  A
C1083      C1084   1.406       .  A
C1084      H1088   1.083       .  S
O1089      V1097   1.907   1_556  S
O1089      C1099   1.267       .  A
O1091      V1097   1.887       .  S
O1091      C1101   1.263   1_554  A
O1092      V1097   1.890       .  S
O1092      C1102   1.262   1_554  A
O1093      V1098   1.910       .  S
O1093      C1102   1.268       .  A
O1094      V1098   1.912       .  S
O1094      C1101   1.268       .  A
O1095      V1098   1.886       .  S
O1095      C1100   1.263       .  A
O1096      V1098   1.889       .  S
O1096      C1099   1.262       .  A
V1097      V1098   2.082   1_554  T
C1099      C1627   1.474       .  S
C1100      C1594   1.473   1_556  S
C1101      C1604   1.479       .  S
C1102      C1617   1.472       .  S
O1103      V1111   1.904       .  S
O1103      C1113   1.266       .  A
O1104      V1111   1.911       .  S
O1104      C1114   1.266       .  A
O1105      V1111   1.882       .  S
O1105      C1115   1.262       .  A
O1106      V1111   1.892       .  S
O1106      C1116   1.262       .  A
O1107      V1112   1.905       .  S
O1107      C1116   1.267       .  A
O1108      V1112   1.914       .  S
O1108      C1115   1.267       .  A
O1109      V1112   1.883       .  S
O1109      C1114   1.262       .  A
O1110      V1112   1.891       .  S
O1110      C1113   1.262       .  A
V1111      V1112   2.087       .  T
C1113      C1624   1.472       .  S
C1114      C1564   1.472       .  S
C1115      C1574   1.477       .  S
C1116      C1584   1.476       .  S
O1117      V1125   1.907       .  S
O1118      V1125   1.914       .  S
O1118      C1128   1.267       .  A
O1119      V1125   1.882       .  S
O1119      C1129   1.262       .  A
O1120      V1125   1.892       .  S
O1120      C1130   1.262       .  A
O1121      V1126   1.907       .  S
O1122      C1129   1.268   1_554  A
O1123      C1128   1.262       .  A
O1124      V1126   1.894       .  S
O1124      C1127   1.262       .  A
C1127      C1554   1.476       .  S
C1128      C1534   1.476       .  S
C1129      C1544   1.479       .  S
C1130      C1614   1.478       .  S
O1131      V1139   1.911       .  S
O1131      C1141   1.268       .  A
O1132      V1139   1.912       .  S
O1132      C1142   1.267       .  A
O1133      V1139   1.885       .  S
O1133      C1143   1.263       .  A
O1134      V1139   1.888       .  S
O1134      C1144   1.261       .  A
O1135      V1140   1.909       .  S
O1135      C1144   1.267       .  A
O1136      V1140   1.911       .  S
O1136      C1143   1.267       .  A
O1137      V1140   1.889       .  S
O1137      C1142   1.263       .  A
O1138      V1140   1.891       .  S
O1138      C1141   1.262       .  A
V1139      V1140   2.082       .  T
C1141      C1557   1.478       .  S
C1142      C1514   1.477       .  S
C1143      C1524   1.478       .  S
C1144      C1587   1.471       .  S
O1145      V1153   1.905       .  S
O1145      C1155   1.266       .  A
O1146      V1153   1.907       .  S
O1146      C1156   1.265       .  A
O1147      V1153   1.890       .  S
O1147      C1157   1.261       .  A
O1148      V1153   1.885       .  S
O1148      C1158   1.262       .  A
O1149      V1154   1.909       .  S
O1149      C1158   1.266       .  A
O1150      V1154   1.906       .  S
O1150      C1157   1.266       .  A
O1151      V1154   1.889       .  S
O1151      C1156   1.263       .  A
O1152      V1154   1.892       .  S
O1152      C1155   1.262       .  A
V1153      V1154   2.088       .  T
C1155      C1504   1.473       .  S
C1156      C1484   1.474       .  S
C1157      C1494   1.469       .  S
C1158      C1597   1.475       .  S
O1159      V1167   1.909       .  S
O1159      C1169   1.268       .  A
O1160      V1167   1.910       .  S
O1160      C1170   1.267       .  A
O1161      V1167   1.891       .  S
O1161      C1171   1.262       .  A
O1162      V1167   1.888       .  S
O1162      C1172   1.264       .  A
O1163      V1168   1.913       .  S
O1163      C1172   1.268       .  A
O1164      V1168   1.910       .  S
O1164      C1171   1.268       .  A
O1165      V1168   1.887       .  S
O1165      C1170   1.263       .  A
O1166      V1168   1.889       .  S
O1166      C1169   1.262       .  A
V1167      V1168   2.082       .  T
C1169      C1507   1.475       .  S
C1170      C1467   1.474       .  S
C1171      C1474   1.473       .  S
C1172      C1537   1.481       .  S
O1173      V1181   1.906       .  S
O1173      C1183   1.266       .  A
O1174      V1181   1.913       .  S
O1174      C1184   1.267       .  A
O1175      V1181   1.891       .  S
O1175      C1185   1.262       .  A
O1176      V1181   1.881       .  S
O1176      C1186   1.262       .  A
O1177      V1182   1.914       .  S
O1177      C1186   1.267       .  A
O1179      V1182   1.886       .  S
O1179      C1184   1.262       .  A
V1181      V1182   2.087       .  T
C1184      C1444   1.475       .  S
C1185      C1497   1.477       .  S
C1186      C1567   1.477       .  S
O1187      V1195   1.907       .  S
O1187      C1197   1.267       .  A
O1188      V1195   1.914       .  S
O1188      C1198   1.267       .  A
O1189      V1195   1.889       .  S
O1189      C1199   1.262       .  A
O1190      V1195   1.887       .  S
O1190      C1200   1.263       .  A
O1191      V1196   1.913       .  S
O1191      C1200   1.267       .  A
O1192      V1196   1.910       .  S
O1192      C1199   1.268       .  A
O1193      V1196   1.885       .  S
O1193      C1198   1.262       .  A
O1194      V1196   1.893       .  S
O1194      C1197   1.262       .  A
V1195      V1196   2.085       .  T
C1197      C1457   1.476       .  S
C1198      C1434   1.475       .  S
C1199      C1477   1.478       .  S
C1200      C1517   1.480       .  S
O1201      V1209   1.910   1_556  S
O1201      C1211   1.268       .  A
O1203      V1209   1.885       .  S
O1203      C1213   1.261   1_554  A
O1204      V1209   1.894       .  S
O1204      C1214   1.263   1_554  A
O1205      V1210   1.903       .  S
O1205      C1214   1.267       .  A
O1206      V1210   1.912       .  S
O1206      C1213   1.267       .  A
O1207      V1210   1.889       .  S
O1207      C1212   1.263       .  A
O1208      V1210   1.891       .  S
O1208      C1211   1.262       .  A
V1209      V1210   2.086   1_554  T
C1211      C1424   1.477       .  S
C1212      C1404   1.475   1_556  S
C1213      C1487   1.470       .  S
C1214      C1414   1.477       .  S
O1215      V1223   1.907       .  S
O1215      C1225   1.267       .  A
O1216      V1223   1.914       .  S
O1216      C1226   1.267       .  A
O1217      V1223   1.886       .  S
O1217      C1227   1.263       .  A
O1218      V1223   1.889       .  S
O1218      C1228   1.262       .  A
O1219      V1224   1.911       .  S
O1219      C1228   1.268       .  A
O1220      V1224   1.913       .  S
O1220      C1227   1.267       .  A
O1221      V1224   1.887       .  S
O1221      C1226   1.262       .  A
O1222      V1224   1.895       .  S
O1222      C1225   1.262       .  A
V1223      V1224   2.085       .  T
C1225      C1427   1.477       .  S
C1226      C1384   1.477       .  S
C1227      C1447   1.479       .  S
C1228      C1394   1.478       .  S
O1229      V1237   1.907       .  S
O1229      C1239   1.267       .  A
O1230      V1237   1.909       .  S
O1230      C1240   1.266       .  A
O1231      V1237   1.886       .  S
O1231      C1241   1.263       .  A
O1232      V1237   1.889       .  S
O1232      C1242   1.261       .  A
O1233      V1238   1.909       .  S
O1234      C1241   1.267   1_554  A
O1235      C1240   1.263       .  A
O1236      V1238   1.888       .  S
C1240      C1367   1.473       .  S
C1241      C1464   1.478       .  S
C1242      C1417   1.471       .  S
O1243      V1251   1.906       .  S
O1243      C1253   1.267       .  A
O1244      V1251   1.908       .  S
O1244      C1254   1.265       .  A
O1245      V1251   1.884       .  S
O1245      C1255   1.262       .  A
O1246      V1251   1.894       .  S
O1246      C1256   1.262       .  A
O1247      V1252   1.906       .  S
O1247      C1256   1.267       .  A
O1248      V1252   1.915       .  S
O1248      C1255   1.268       .  A
O1249      V1252   1.885       .  S
O1249      C1254   1.262       .  A
O1250      V1252   1.888       .  S
O1250      C1253   1.261       .  A
V1251      V1252   2.087       .  T
C1253      C1377   1.470       .  S
C1254      C1357   1.472       .  S
C1255      C1437   1.479       .  S
C1256      C1397   1.472       .  S
O1257      V1265   1.911       .  S
O1257      C1267   1.268       .  A
O1259      V1265   1.891       .  S
O1259      C1269   1.262       .  A
O1260      V1265   1.888       .  S
O1260      C1270   1.263       .  A
O1261      V1266   1.913       .  S
O1261      C1270   1.268       .  A
O1262      V1266   1.911       .  S
O1262      C1269   1.268       .  A
O1263      V1266   1.888       .  S
O1263      C1268   1.263       .  A
O1264      V1266   1.890       .  S
O1264      C1267   1.262       .  A
V1265      V1266   2.082       .  T
C1267      C1344   1.477       .  S
C1268      C1607   1.476       .  S
C1269      C1337   1.474       .  S
C1270      C1407   1.481       .  S
O1271      V1279   1.906       .  S
O1271      C1281   1.266       .  A
O1272      V1279   1.913       .  S
O1272      C1282   1.266       .  A
O1273      V1279   1.890       .  S
O1273      C1283   1.262       .  A
O1274      V1279   1.880       .  S
O1274      C1284   1.261       .  A
O1275      V1280   1.914       .  S
O1275      C1284   1.267       .  A
O1276      V1280   1.905       .  S
O1276      C1283   1.267       .  A
O1277      V1280   1.886       .  S
O1277      C1282   1.262       .  A
O1278      V1280   1.894       .  S
O1278      C1281   1.262       .  A
V1279      V1280   2.087       .  T
C1281      C1347   1.475       .  S
C1282      C1547   1.475       .  S
C1283      C1324   1.476       .  S
C1284      C1364   1.476       .  S
O1285      V1293   1.905       .  S
O1285      C1295   1.267       .  A
O1286      V1293   1.913       .  S
O1286      C1296   1.267       .  A
O1287      V1293   1.890       .  S
O1287      C1297   1.262       .  A
O1288      V1293   1.888       .  S
O1288      C1298   1.263       .  A
O1289      C1298   1.267       .  A
O1290      V1294   1.911       .  S
O1291      C1296   1.262       .  A
O1292      V1294   1.891       .  S
C1296      C1577   1.473       .  S
C1297      C1334   1.478       .  S
C1298      C1387   1.481       .  S
O1299      V1307   1.907       .  S
O1299      C1309   1.267       .  A
O1300      V1307   1.909       .  S
O1300      C1310   1.266       .  A
O1301      V1307   1.890       .  S
O1301      C1311   1.261       .  A
O1302      V1307   1.881       .  S
O1302      C1312   1.261       .  A
O1303      V1308   1.913       .  S
O1303      C1312   1.267       .  A
O1304      V1308   1.905       .  S
O1304      C1311   1.266       .  A
O1305      V1308   1.887       .  S
O1305      C1310   1.263       .  A
O1306      V1308   1.889       .  S
O1306      C1309   1.261       .  A
V1307      V1308   2.087       .  T
C1309      C1317   1.471       .  S
C1310      C1527   1.473       .  S
C1311      C1327   1.469       .  S
C1312      C1354   1.476       .  S
C1313      H1319   1.083       .  S
C1314      C1315   1.406       .  A
C1315      H1320   1.083       .  S
C1315      C1316   1.398       .  A
C1316      H1321   1.083       .  S
C1316      C1317   1.401       .  A
C1317      C1318   1.404   1_556  A
C1323      H1329   1.083       .  S
C1323      C1324   1.403       .  A
C1323      C1328   1.397       .  A
C1324      C1325   1.407       .  A
C1325      H1330   1.083       .  S
C1325      C1326   1.397       .  A
C1326      H1331   1.083       .  S
C1326      C1327   1.400       .  A
C1327      C1328   1.403       .  A
C1328      H1332   1.083       .  S
C1333      C1334   1.403       .  A
C1333      C1338   1.399       .  A
C1334      C1335   1.407       .  A
C1335      H1340   1.083       .  S
C1335      C1336   1.398       .  A
C1336      H1341   1.083       .  S
C1336      C1337   1.400       .  A
C1337      C1338   1.405       .  A
C1338      H1342   1.083       .  S
C1343      H1349   1.083       .  S
C1343      C1344   1.406       .  A
C1343      C1348   1.397       .  A
C1344      C1345   1.402       .  A
C1345      H1350   1.083       .  S
C1345      C1346   1.399       .  A
C1346      H1351   1.083       .  S
C1346      C1347   1.405       .  A
C1347      C1348   1.401       .  A
C1348      H1352   1.083       .  S
C1353      H1359   1.083       .  S
C1353      C1354   1.404       .  A
C1353      C1358   1.388   1_565  A
C1354      C1355   1.406       .  A
C1355      H1360   1.083       .  S
C1355      C1356   1.405   1_565  A
C1356      H1361   1.083       .  S
C1356      C1357   1.405       .  A
C1357      C1358   1.401       .  A
C1358      H1362   1.083       .  S
C1363      H1369   1.083       .  S
C1363      C1364   1.406       .  A
C1363      C1368   1.405       .  A
C1364      C1365   1.403       .  A
C1365      H1370   1.084   1_556  S
C1365      C1366   1.388       .  A
C1366      H1371   1.083   1_556  S
C1366      C1367   1.401       .  A
C1367      C1368   1.406       .  A
C1368      H1372   1.083       .  S
C1373      H1379   1.083       .  S
C1373      C1374   1.406       .  A
C1373      C1378   1.397       .  A
C1375      H1380   1.083       .  S
C1376      H1381   1.083       .  S
C1376      C1377   1.404       .  A
C1377      C1378   1.400       .  A
C1378      H1382   1.083       .  S
C1383      H1389   1.083       .  S
C1383      C1384   1.402       .  A
C1383      C1388   1.391   1_545  A
C1384      C1385   1.405       .  A
C1385      H1390   1.083       .  S
C1385      C1386   1.406   1_545  A
C1386      H1391   1.083       .  S
C1386      C1387   1.407       .  A
C1387      C1388   1.404       .  A
C1388      H1392   1.083       .  S
C1393      H1399   1.083       .  S
C1393      C1394   1.407       .  A
C1393      C1398   1.397       .  A
C1394      C1395   1.403       .  A
C1395      H1400   1.083       .  S
C1395      C1396   1.400       .  A
C1396      H1401   1.083       .  S
C1396      C1397   1.404       .  A
C1397      C1398   1.400       .  A
C1398      H1402   1.083       .  S
C1403      H1409   1.083       .  S
C1403      C1404   1.401   1_556  A
C1403      C1408   1.392       .  A
C1405      H1410   1.083       .  S
C1405      C1406   1.405       .  A
C1406      H1411   1.083       .  S
C1406      C1407   1.407       .  A
C1408      H1412   1.083       .  S
C1413      C1414   1.407   1_554  A
C1414      C1415   1.403       .  A
C1415      H1420   1.083       .  S
C1415      C1416   1.396       .  A
C1416      H1421   1.083       .  S
C1416      C1417   1.404       .  A
C1418      H1422   1.083       .  S
C1423      H1429   1.083       .  S
C1423      C1424   1.406       .  A
C1423      C1428   1.398       .  A
C1424      C1425   1.402       .  A
C1425      H1430   1.083   1_556  S
C1425      C1426   1.400       .  A
C1426      H1431   1.083       .  S
C1426      C1427   1.406       .  A
C1427      C1428   1.402       .  A
C1428      H1432   1.083       .  S
C1433      H1439   1.083       .  S
C1433      C1434   1.402       .  A
C1433      C1438   1.390   1_455  A
C1434      C1435   1.406       .  A
C1435      H1440   1.083       .  S
C1435      C1436   1.406       .  A
C1436      H1441   1.083   1_455  S
C1436      C1437   1.407   1_455  A
C1437      C1438   1.404       .  A
C1438      H1442   1.083       .  S
C1443      H1449   1.083       .  S
C1443      C1444   1.405       .  A
C1443      C1448   1.406       .  A
C1444      C1445   1.401       .  A
C1445      H1450   1.083       .  S
C1445      C1446   1.390       .  A
C1446      H1451   1.083       .  S
C1446      C1447   1.404       .  A
C1447      C1448   1.407       .  A
C1448      H1452   1.083       .  S
C1453      H1459   1.083       .  S
C1454      C1455   1.405       .  A
C1455      H1460   1.083       .  S
C1455      C1456   1.398       .  A
C1456      H1461   1.083       .  S
C1456      C1457   1.402       .  A
C1457      C1458   1.406   1_556  A
C1458      H1462   1.083       .  S
C1463      H1469   1.083   1_455  S
C1463      C1464   1.407   1_454  A
C1463      C1468   1.405   1_554  A
C1464      C1465   1.404       .  A
C1465      H1470   1.083       .  S
C1465      C1466   1.390   1_655  A
C1466      H1471   1.083       .  S
C1466      C1467   1.402       .  A
C1467      C1468   1.405       .  A
C1468      H1472   1.083   1_556  S
C1473      H1479   1.083       .  S
C1473      C1474   1.400       .  A
C1473      C1478   1.398       .  A
C1474      C1475   1.405       .  A
C1475      H1480   1.083       .  S
C1475      C1476   1.399       .  A
C1476      H1481   1.083       .  S
C1476      C1477   1.403       .  A
C1477      C1478   1.407       .  A
C1478      H1482   1.083       .  S
C1483      H1489   1.083       .  S
C1483      C1484   1.402       .  A
C1485      H1490   1.083       .  S
C1485      C1486   1.404       .  A
C1486      H1491   1.083       .  S
C1486      C1487   1.403       .  A
C1487      C1488   1.401   1_556  A
C1488      H1492   1.084       .  S
C1493      H1499   1.083       .  S
C1493      C1494   1.403       .  A
C1493      C1498   1.398       .  A
C1494      C1495   1.400       .  A
C1495      H1500   1.083       .  S
C1495      C1496   1.398       .  A
C1496      H1501   1.083       .  S
C1496      C1497   1.407       .  A
C1497      C1498   1.403       .  A
C1498      H1502   1.083       .  S
C1503      H1509   1.083       .  S
C1503      C1504   1.405       .  A
C1503      C1508   1.399       .  A
C1504      C1505   1.401       .  A
C1505      H1510   1.083       .  S
C1505      C1506   1.397       .  A
C1506      H1511   1.083       .  S
C1506      C1507   1.406       .  A
C1507      C1508   1.402       .  A
C1508      H1512   1.083       .  S
C1513      H1519   1.083       .  S
C1513      C1514   1.402       .  A
C1513      C1518   1.391   1_565  A
C1514      C1515   1.406       .  A
C1515      H1520   1.083       .  S
C1515      C1516   1.406   1_565  A
C1516      H1521   1.083       .  S
C1516      C1517   1.407       .  A
C1517      C1518   1.404       .  A
C1518      H1522   1.083       .  S
C1523      H1529   1.083       .  S
C1523      C1524   1.404       .  A
C1523      C1528   1.390   1_455  A
C1524      C1525   1.406       .  A
C1525      H1530   1.083       .  S
C1525      C1526   1.404   1_455  A
C1526      H1531   1.083       .  S
C1526      C1527   1.405       .  A
C1527      C1528   1.401       .  A
C1528      H1532   1.083       .  S
C1533      H1539   1.083   1_556  S
C1533      C1534   1.402       .  A
C1533      C1538   1.391       .  A
C1534      C1535   1.405       .  A
C1535      H1540   1.083       .  S
C1535      C1536   1.406       .  A
C1536      H1541   1.083       .  S
C1536      C1537   1.407       .  A
C1537      C1538   1.404       .  A
C1538      H1542   1.083   1_556  S
C1543      H1549   1.084       .  S
C1543      C1544   1.404       .  A
C1543      C1548   1.390   1_455  A
C1544      C1545   1.407   1_556  A
C1545      C1546   1.407   1_455  A
C1546      H1551   1.083       .  S
C1546      C1547   1.406   1_554  A
C1547      C1548   1.401       .  A
C1548      H1552   1.084       .  S
C1553      C1554   1.401       .  A
C1553      C1558   1.399       .  A
C1554      C1555   1.405       .  A
C1555      H1560   1.083       .  S
C1555      C1556   1.399       .  A
C1556      H1561   1.083       .  S
C1556      C1557   1.402       .  A
C1557      C1558   1.407       .  A
C1558      H1562   1.083       .  S
C1563      H1569   1.083       .  S
C1563      C1564   1.405       .  A
C1563      C1568   1.406   1_565  A
C1564      C1565   1.401       .  A
C1565      H1570   1.084       .  S
C1565      C1566   1.388   1_565  A
C1566      H1571   1.084       .  S
C1566      C1567   1.403       .  A
C1567      C1568   1.407       .  A
C1568      H1572   1.083       .  S
C1573      H1579   1.083       .  S
C1573      C1574   1.407       .  A
C1573      C1578   1.406       .  A
C1574      C1575   1.403       .  A
C1575      H1580   1.084       .  S
C1575      C1576   1.389       .  A
C1576      H1581   1.084       .  S
C1576      C1577   1.401       .  A
C1577      C1578   1.405       .  A
C1578      H1582   1.083       .  S
C1583      H1589   1.083       .  S
C1583      C1584   1.407       .  A
C1583      C1588   1.398       .  A
C1584      C1585   1.403       .  A
C1585      H1590   1.083       .  S
C1585      C1586   1.396       .  A
C1586      H1591   1.083       .  S
C1586      C1587   1.404       .  A
C1587      C1588   1.400       .  A
C1588      H1592   1.083       .  S
C1593      H1599   1.083       .  S
C1593      C1594   1.402   1_556  A
C1593      C1598   1.390       .  A
C1595      H1600   1.083       .  S
C1595      C1596   1.404       .  A
C1596      H1601   1.083       .  S
C1596      C1597   1.406       .  A
C1598      H1602   1.084       .  S
C1603      H1609   1.083       .  S
C1603      C1608   1.391       .  A
C1604      C1605   1.407       .  A
C1605      H1610   1.083       .  S
C1605      C1606   1.405       .  A
C1606      H1611   1.083       .  S
C1607      C1608   1.402       .  A
C1608      H1612   1.083       .  S
C1613      H1619   1.083       .  S
C1613      C1614   1.407       .  A
C1613      C1618   1.399       .  A
C1615      H1620   1.083       .  S
C1616      C1617   1.404   1_554  A
C1617      C1618   1.401       .  A
C1618      H1622   1.083       .  S
C1623      H1629   1.083       .  S
C1623      C1624   1.401       .  A
C1623      C1628   1.397       .  A
C1624      C1625   1.405       .  A
C1625      H1630   1.083       .  S
C1625      C1626   1.397       .  A
C1626      H1631   1.083   1_556  S
C1626      C1627   1.402       .  A
C1627      C1628   1.406       .  A
C1628      H1632   1.083       .  S
