geometry optimzed in LAMMPS
_audit_creation_date              2020-12-01 
_audit_creation_method            'lammps2cif' 
_symmetry_space_group_name_H-M    'P1' 
_symmetry_Int_Tables_number       1 
_symmetry_cell_setting            triclinic 
loop_ 
_symmetry_equiv_pos_as_xyz 
  x,y,z 
_cell_length_a                    65.78188167 
_cell_length_b                    65.64672606145473 
_cell_length_c                    35.07175766119843 
_cell_angle_alpha                 90.13285463545311 
_cell_angle_beta                  89.91469251104893 
_cell_angle_gamma                 90.09296980675259 
loop_ 
_atom_site_label 
_atom_site_type_symbol 
_atom_site_fract_x 
_atom_site_fract_y 
_atom_site_fract_z 
_atom_site_charge 
O1          O  0.84203695  0.30068766  0.07746159    -0.56300
C2          C  0.84691611  0.35308269  0.12541010     0.76400
O3          O  0.82556636  0.35099180  0.00038913    -0.57400
C4          C  0.83343615  0.29071754  0.05118122     0.76300
C5          C  0.78581704  0.33481890  0.09298354     0.78700
Cd6        Cd  0.82693510  0.33352881  0.06337778     1.37500
O7          O  0.85356120  0.33656831  0.11149056    -0.56300
O8          O  0.79939999  0.32326981  0.10624793    -0.55100
C9          C  0.84407015  0.35646711  0.50080964     0.78700
O10         O  0.79094470  0.34573917  0.06473991    -0.57400
O11         O  0.83100614  0.36040071  0.11055124    -0.55900
O12         O  0.82272396  0.30083310  0.02798821    -0.55900
O13         O  0.85433215  0.35106060  0.02941123    -0.55100
O14         O  0.63921264  0.34014355  0.13979736    -0.56300
C15         C  0.65916167  0.29426911  0.19995259     0.76400
O16         O  0.70027881  0.34946983  0.18941713    -0.57400
C17         C  0.64575498  0.35681598  0.12655183     0.76300
C18         C  0.64603988  0.35779704  0.25511245     0.78700
Cd19       Cd  0.66439492  0.33728373  0.19009778     1.37500
O20         O  0.64821110  0.30454135  0.17752174    -0.56300
O21         O  0.63604370  0.35099558  0.22715890    -0.55100
C22         C  0.70562037  0.33738364  0.16290090     0.78700
O23         O  0.66511096  0.35501627  0.25376544    -0.57400
O24         O  0.67163321  0.30420684  0.22027214    -0.55900
O25         O  0.66127317  0.36449379  0.14236615    -0.55900
O26         O  0.69205810  0.32562362  0.14997417    -0.55100
O27         O  0.91415529  0.59682079  0.25590222    -0.56300
C28         C  0.95711079  0.58061534  0.18406676     0.76400
O29         O  0.90931002  0.54143602  0.18445071    -0.57400
C30         C  0.89545485  0.60138118  0.25574056     0.76300
C31         C  0.89323852  0.59624775  0.12927728     0.78700
Cd32       Cd  0.91351112  0.57870264  0.19433131     1.37500
O33         O  0.94775067  0.59266135  0.20619811    -0.56300
O34         O  0.90939595  0.60375331  0.14296257    -0.55100
C35         C  0.90726923  0.53740527  0.21954821     0.78700
O36         O  0.88679553  0.58001127  0.14458477    -0.57400
O37         O  0.94617131  0.56833601  0.16523898    -0.55900
O38         O  0.88564215  0.59630966  0.22621242    -0.55900
O39         O  0.90723900  0.55234368  0.24221557    -0.55100
O40         O  0.90488731  0.38931001  0.26206204    -0.56300
C41         C  0.95076733  0.41168999  0.32235244     0.76400
O42         O  0.89986644  0.45220229  0.31707434    -0.57400
C43         C  0.88714841  0.39405560  0.25134420     0.76300
C44         C  0.88569472  0.39873936  0.37810396     0.78700
Cd45       Cd  0.90712932  0.41509128  0.31272017     1.37500
O46         O  0.94047163  0.39889549  0.30351960    -0.56300
O47         O  0.89633822  0.38796939  0.35592163    -0.55100
C48         C  0.90492155  0.45582831  0.28281761     0.78700
O49         O  0.88548235  0.41769852  0.37149627    -0.57400
O50         O  0.94063893  0.42550936  0.33886914    -0.55900
O51         O  0.87867388  0.40842875  0.26946152    -0.55900
O52         O  0.91019492  0.44063992  0.26294074    -0.55100
O53         O  0.55594246  0.59676638  0.06080953    -0.56300
C54         C  0.60842964  0.60382505  0.01400065     0.76400
O55         O  0.61798871  0.58282618  0.11891672    -0.57400
C56         C  0.54556853  0.58420986  0.08019486     0.76300
C57         C  0.58954394  0.54039674  0.04274639     0.78700
Cd58       Cd  0.58897288  0.58111756  0.07362053     1.37500
O59         O  0.59245499  0.61048285  0.02988423    -0.56300
O60         O  0.58266753  0.55544729  0.02457018    -0.55100
C61         C  0.60997752  0.59540580  0.14177263     0.78700
O62         O  0.59638327  0.54386615  0.07595214    -0.57400
O63         O  0.61550324  0.58732603  0.02675993    -0.55900
O64         O  0.55545914  0.57097344  0.09875210    -0.55900
O65         O  0.59178786  0.60030263  0.13474002    -0.55100
O66         O  0.58580864  0.39361474  0.49412422    -0.56300
C67         C  0.54011042  0.41587252  0.43236210     0.76400
O68         O  0.59575191  0.45536886  0.44171435    -0.57400
C69         C  0.60402431  0.39759811  0.50308968     0.76300
C70         C  0.60337842  0.40085520  0.37717366     0.78700
Cd71       Cd  0.58362308  0.41910551  0.44311503     1.37500
O72         O  0.54953070  0.40583528  0.45747362    -0.56300
O73         O  0.59451910  0.39063867  0.40278331    -0.55100
C74         C  0.58677227  0.46028130  0.47243118     0.85100
O75         O  0.60278591  0.42005343  0.38117741    -0.57400
O76         O  0.55098262  0.42672313  0.41053747    -0.55900
O77         O  0.61270350  0.41153214  0.48419224    -0.55900
O78         O  0.57684164  0.44631991  0.48876444    -0.55100
O79         O  0.84572871  0.69565983  0.42967299    -0.56300
C80         C  0.85554268  0.64081108  0.38435313     0.76400
O81         O  0.83320938  0.63723390  0.99885479    -0.57400
C82         C  0.83661380  0.70472386  0.45656974     0.76300
C83         C  0.79320067  0.65863251  0.41372924     0.78700
Cd84       Cd  0.83375721  0.66119095  0.44387063     1.37500
O85         O  0.85935166  0.65917009  0.39297917    -0.56300
O86         O  0.80802897  0.66560284  0.39495419    -0.55100
C87         C  0.85166385  0.64006730  0.00788350     0.78700
O88         O  0.79692507  0.65219121  0.44706904    -0.57400
O89         O  0.84207857  0.63194986  0.40405409    -0.55900
O90         O  0.82645007  0.69344992  0.47888408    -0.55900
O91         O  0.86106307  0.65339768  0.48873244    -0.55100
O92         O  0.64486582  0.66227488  0.37697601    -0.56300
C93         C  0.66544398  0.70526948  0.30301734     0.76400
O94         O  0.70573601  0.65015574  0.32252941    -0.57400
C95         C  0.64932059  0.64451524  0.38818014     0.76300
C96         C  0.65197843  0.63926299  0.26305309     0.78700
Cd97       Cd  0.66999501  0.66294743  0.32423689     1.37500
O98         O  0.65756346  0.69803726  0.33302755    -0.56300
O99         O  0.64164099  0.65032960  0.28533401    -0.55100
C100        C  0.71198726  0.66147985  0.34939412     0.78700
O101        O  0.67105575  0.63959906  0.26810267    -0.57400
O102        O  0.67475649  0.69273633  0.28178834    -0.55900
O103        O  0.66356011  0.63575623  0.37033816    -0.55900
O104        O  0.69907872  0.67356493  0.36357966    -0.55100
O105        O  0.84581035  0.19263410  0.07274189    -0.56300
C106        C  0.84987738  0.14045899  0.12175467     0.76400
O107        O  0.79414949  0.14759494  0.06206430    -0.57400
C108        C  0.83575039  0.20257834  0.04839135     0.76300
C109        C  0.84817012  0.13917014  0.99575511     0.78700
Cd110      Cd  0.83005595  0.15992960  0.05969872     1.37500
O111        O  0.85564967  0.15767941  0.10953967    -0.56300
O112        O  0.85690700  0.14160478  0.02741818    -0.55100
C113        C  0.78935012  0.15926201  0.08957603     0.78700
O114        O  0.83021390  0.14605951  0.99327530    -0.57400
O115        O  0.83479008  0.13232234  0.10518278    -0.55900
O116        O  0.82432172  0.19247073  0.02633523    -0.55900
O117        O  0.80313976  0.17086548  0.10204102    -0.55100
O118        O  0.65230796  0.19481597  0.17782137    -0.56300
C119        C  0.65018875  0.14272200  0.12979146     0.76400
O120        O  0.70503031  0.14991208  0.19146721    -0.57400
C121        C  0.66201370  0.20586149  0.20105839     0.76300
C122        C  0.65228543  0.14193433  0.25753241     0.78700
Cd123      Cd  0.66927885  0.16279063  0.19226662     1.37500
O124        O  0.64406088  0.15981965  0.14181338    -0.56300
O125        O  0.64179727  0.14760888  0.22939823    -0.55100
C126        C  0.71034578  0.16093036  0.16350470     0.78700
O127        O  0.67112284  0.14597376  0.25617087    -0.57400
O128        O  0.66509967  0.13478253  0.14694056    -0.55900
O129        O  0.67449235  0.19673965  0.22257168    -0.55900
O130        O  0.69699277  0.17276185  0.15029145    -0.55100
O131        O  0.94547129  0.09316145  0.29487915    -0.56300
C132        C  0.89087436  0.10068684  0.24753990     0.76400
O133        O  0.90058573  0.04445292  0.31128227    -0.57400
C134        C  0.95441939  0.08368309  0.32136653     0.76300
C135        C  0.89122116  0.09775238  0.37358316     0.78700
Cd136      Cd  0.91145220  0.08058051  0.30875013     1.37500
O137        O  0.90740305  0.10741831  0.26105716    -0.56300
O138        O  0.90321586  0.10785256  0.35274389    -0.55100
C139        C  0.91092588  0.03944856  0.28216764     0.78700
O140        O  0.88890431  0.07909503  0.36525053    -0.57400
O141        O  0.88385476  0.08471315  0.26275591    -0.55900
O142        O  0.94324768  0.07362131  0.34398060    -0.55900
O143        O  0.92105650  0.05335955  0.26606494    -0.55100
O144        O  0.94942508  0.90079727  0.20201320    -0.56300
C145        C  0.89747083  0.89773889  0.25182092     0.76400
O146        O  0.90340165  0.95251421  0.18998904    -0.57400
C147        C  0.96004774  0.91183854  0.18020613     0.76300
C148        C  0.89544700  0.90084078  0.12349315     0.78700
Cd149      Cd  0.91700114  0.91731179  0.18881243     1.37500
O150        O  0.91405658  0.89119937  0.23812141    -0.56300
O151        O  0.89862259  0.89098947  0.15374477    -0.55100
C152        C  0.91464479  0.95829439  0.21732233     0.78700
O153        O  0.90281672  0.91868496  0.12234299    -0.57400
O154        O  0.88999676  0.91346051  0.23643496    -0.55900
O155        O  0.95052205  0.92439357  0.15955410    -0.55900
O156        O  0.92687516  0.94527327  0.23040811    -0.55100
O157        O  0.55665459  0.09124118  0.45727138    -0.56300
C158        C  0.61106609  0.10147486  0.50353145     0.76400
O159        O  0.60018105  0.04269218  0.44294057    -0.57400
C160        C  0.54811349  0.08166393  0.43036496     0.76300
C161        C  0.61145454  0.09852433  0.38065192     0.78700
Cd162      Cd  0.59115321  0.07935244  0.44446640     1.37500
O163        O  0.59309723  0.10567785  0.49320436    -0.56300
O164        O  0.60152123  0.10820561  0.40559933    -0.55100
C165        C  0.59529117  0.03902335  0.47728655     0.78700
O166        O  0.61192786  0.07931390  0.38467704    -0.57400
O167        O  0.61985523  0.08717232  0.48571681    -0.55900
O168        O  0.55959083  0.07112335  0.40911634    -0.55900
O169        O  0.58848058  0.05413799  0.49557362    -0.55100
O170        O  0.55496245  0.90236158  0.05229491    -0.56300
C171        C  0.60877477  0.89397616  0.00441456     0.76400
O172        O  0.59998751  0.95136019  0.07311551    -0.57400
C173        C  0.54606071  0.91356658  0.07641665     0.76300
C174        C  0.60993916  0.89637535  0.12831918     0.78700
Cd175      Cd  0.58937201  0.91535745  0.06517985     1.37500
O176        O  0.59145260  0.88876732  0.01677681    -0.56300
O177        O  0.59990272  0.88642128  0.10394592    -0.55100
C178        C  0.59482994  0.95665032  0.03974349     0.78700
O179        O  0.61007939  0.91553492  0.12419804    -0.57400
O180        O  0.61686907  0.90938023  0.02003984    -0.55900
O181        O  0.55724585  0.92508061  0.09635129    -0.55900
O182        O  0.58740470  0.94287894  0.01863455    -0.55100
O183        O  0.84430576  0.80173191  0.42227238    -0.56300
C184        C  0.85572331  0.85686858  0.37637978     0.76400
O185        O  0.79784647  0.84713691  0.44444481    -0.57400
C186        C  0.83676923  0.79339250  0.45154246     0.76300
C187        C  0.85242922  0.85897898  0.00120586     0.78700
Cd188      Cd  0.83422526  0.83700774  0.43779677     1.37500
O189        O  0.86098105  0.83948886  0.38849067    -0.56300
O190        O  0.86273589  0.84866113  0.47765779    -0.55100
C191        C  0.79282886  0.84105834  0.41142064     0.78700
O192        O  0.83332508  0.85871614  0.99655534    -0.57400
O193        O  0.84054759  0.86491981  0.39270005    -0.55900
O194        O  0.82843492  0.80529448  0.47527570    -0.55900
O195        O  0.80675314  0.83313379  0.39149628    -0.55100
O196        O  0.65810433  0.80141067  0.32805711    -0.56300
C197        C  0.64960850  0.85356296  0.37915342     0.76400
O198        O  0.70497658  0.85206925  0.32090703    -0.57400
C199        C  0.66682969  0.79309695  0.29988273     0.76300
C200        C  0.65263012  0.85587681  0.25196240     0.78700
Cd201      Cd  0.67078030  0.83584323  0.31647107     1.37500
O202        O  0.64490887  0.83606950  0.36671079    -0.56300
O203        O  0.64243656  0.84849906  0.27917536    -0.55100
C204        C  0.71156719  0.83996754  0.34616076     0.78700
O205        O  0.67179059  0.85421252  0.25438108    -0.57400
O206        O  0.66385575  0.86281407  0.36221162    -0.55900
O207        O  0.67720840  0.80474166  0.27863285    -0.55900
O208        O  0.69960381  0.82580472  0.35578207    -0.55100
O209        O  0.05008768  0.39866478  0.30635852    -0.56300
C210        C  0.10203459  0.39526917  0.25013625     0.76400
O211        O  0.09763077  0.45109499  0.31571646    -0.57400
C212        C  0.03959391  0.41211329  0.32307769     0.76300
C213        C  0.10244429  0.39661934  0.37769482     0.78700
Cd214      Cd  0.08309182  0.41584529  0.31272036     1.37500
O215        O  0.08304046  0.39826919  0.25122593    -0.56300
O216        O  0.09499645  0.38691090  0.34985996    -0.55100
C217        C  0.09122151  0.45616855  0.28296988     0.78700
O218        O  0.10050105  0.41584841  0.37640214    -0.57400
O219        O  0.11199631  0.40140562  0.27877063    -0.55900
O220        O  0.04945174  0.42680635  0.33748468    -0.55900
O221        O  0.08103148  0.44285097  0.26537057    -0.55100
O222        O  0.05605542  0.59134772  0.19475861    -0.56300
C223        C  0.10963488  0.59970718  0.23890217     0.76400
O224        O  0.10156012  0.54065027  0.18006318    -0.57400
C225        C  0.04557615  0.57874117  0.17587426     0.76300
C226        C  0.10761124  0.59307931  0.11213791     0.78700
Cd227      Cd  0.08937553  0.57659807  0.18080335     1.37500
O228        O  0.09166695  0.60358655  0.22850310    -0.56300
O229        O  0.09726350  0.60351437  0.13535685    -0.55100
C230        C  0.09459729  0.53641578  0.21287046     0.78700
O231        O  0.10914476  0.57428038  0.11971286    -0.57400
O232        O  0.11847154  0.58524763  0.22169599    -0.55900
O233        O  0.05540111  0.56558029  0.15688063    -0.55900
O234        O  0.08532633  0.55070320  0.22965758    -0.55100
O235        O  0.14885180  0.29948205  0.08134108    -0.56300
C236        C  0.14205219  0.35483121  0.12301627     0.76400
O237        O  0.19908281  0.34339030  0.06055931    -0.57400
C238        C  0.15930442  0.28919015  0.05795546     0.76300
C239        C  0.14512134  0.35211215  0.99764226     0.78700
Cd240      Cd  0.16273112  0.33282267  0.06411485     1.37500
O241        O  0.13787157  0.33644856  0.11546722    -0.56300
O242        O  0.13506569  0.34082521  0.01995107    -0.55100
C243        C  0.20381755  0.33531724  0.09214136     0.78700
O244        O  0.16396587  0.35365113  0.00462858    -0.57400
O245        O  0.15575678  0.36305036  0.10290960    -0.55900
O246        O  0.17036136  0.29921078  0.03503945    -0.55900
O247        O  0.18969555  0.32646195  0.11005350    -0.55100
O248        O  0.34131181  0.30218857  0.16256712    -0.56300
C249        C  0.34461145  0.35690630  0.11367988     0.76400
O250        O  0.29195268  0.34941516  0.17920810    -0.57400
C251        C  0.33173747  0.29253471  0.18815696     0.76300
C252        C  0.34581737  0.35691748  0.24210837     0.78700
Cd253      Cd  0.32733826  0.33598728  0.17787991     1.37500
O254        O  0.35149702  0.34000546  0.12522072    -0.56300
O255        O  0.35609224  0.34960091  0.21487437    -0.55100
C256        C  0.28551986  0.33707590  0.15406576     0.78700
O257        O  0.32679303  0.35387079  0.24081086    -0.57400
O258        O  0.32972888  0.36416290  0.13205298    -0.55900
O259        O  0.32121740  0.30320713  0.21092437    -0.55900
O260        O  0.29824374  0.32451011  0.14085293    -0.55100
O261        O  0.15556034  0.69459152  0.41908510    -0.56300
C262        C  0.14892228  0.64177923  0.36386234     0.76400
O263        O  0.20372956  0.64688377  0.42935855    -0.57400
C264        C  0.16355495  0.70208378  0.44877544     0.76300
C265        C  0.14862934  0.63624121  0.98864694     0.78700
Cd266      Cd  0.16796560  0.65963328  0.42863580     1.37500
O267        O  0.14256844  0.65841503  0.37780645    -0.56300
O268        O  0.13893119  0.64412826  0.46135790    -0.55100
C269        C  0.20963120  0.65831237  0.40236524     0.78700
O270        O  0.16771276  0.63907748  0.98841313    -0.57400
O271        O  0.16416074  0.63364996  0.37961762    -0.55900
O272        O  0.17269338  0.68964681  0.47028284    -0.55900
O273        O  0.19645673  0.67015136  0.38850403    -0.55100
O274        O  0.35682249  0.65786505  0.36983773    -0.56300
C275        C  0.33825371  0.70347865  0.30574539     0.76400
O276        O  0.33322942  0.64129269  0.25318479    -0.57400
C277        C  0.35333606  0.63931188  0.37702355     0.76300
C278        C  0.29199420  0.65821924  0.34116371     0.78700
Cd279      Cd  0.33379573  0.66016710  0.31515844     1.37500
O280        O  0.34904605  0.69339390  0.32876851    -0.56300
O281        O  0.30531806  0.66935705  0.35664070    -0.55100
C282        C  0.35239034  0.64093846  0.24919771     0.78700
O283        O  0.29785787  0.64753156  0.31305396    -0.57400
O284        O  0.32625485  0.69331125  0.28481323    -0.55900
O285        O  0.34081196  0.63042011  0.35525588    -0.55900
O286        O  0.36248163  0.65014313  0.27457078    -0.55100
O287        O  0.40274616  0.39038429  0.47734569    -0.56300
C288        C  0.45161323  0.41366658  0.42376913     0.76400
O289        O  0.39040108  0.41926324  0.36674914    -0.57400
C290        C  0.38588557  0.39730738  0.48906637     0.76300
C291        C  0.40674293  0.45725684  0.46217894     0.78700
Cd292      Cd  0.40805944  0.41708388  0.43001959     1.37500
O293        O  0.44122008  0.40256508  0.44589423    -0.56300
O294        O  0.41614190  0.44259635  0.47725487    -0.55100
C295        C  0.38738660  0.40020612  0.36426318     0.78700
O296        O  0.39725946  0.45350963  0.43141629    -0.57400
O297        O  0.44167828  0.42514009  0.40159159    -0.55900
O298        O  0.37933283  0.41330054  0.47323780    -0.55900
O299        O  0.39473637  0.38943345  0.39063300    -0.55100
O300        O  0.44677992  0.59429093  0.05456422    -0.56300
C301        C  0.39295610  0.59702465  0.00250435     0.76400
O302        O  0.40034496  0.54169610  0.06477951    -0.57400
C303        C  0.45703319  0.58253367  0.07562014     0.76300
C304        C  0.39467891  0.59658330  0.12841100     0.78700
Cd305      Cd  0.41386248  0.57727222  0.06383472     1.37500
O306        O  0.41213161  0.59578549  0.00401210    -0.56300
O307        O  0.40291024  0.60635943  0.10147430    -0.55100
C308        C  0.41046114  0.53628663  0.03563781     0.78700
O309        O  0.39583175  0.57729845  0.12641230    -0.57400
O310        O  0.38335311  0.58854586  0.02941647    -0.55900
O311        O  0.44705377  0.56908750  0.09355745    -0.55900
O312        O  0.42188757  0.54955533  0.02086422    -0.55100
O313        O  0.14675463  0.83420407  0.39414728    -0.56300
C314        C  0.16670266  0.79030953  0.45665053     0.76400
O315        O  0.20674298  0.85015504  0.44019261    -0.57400
C316        C  0.15212748  0.85142937  0.38139615     0.76300
C317        C  0.15387250  0.85477120  0.00781108     0.78700
Cd318      Cd  0.17254332  0.83338520  0.44465445     1.37500
O319        O  0.15920408  0.79969065  0.42854262    -0.56300
O320        O  0.14504574  0.85127861  0.47655541    -0.55100
C321        C  0.21366548  0.83743041  0.41623996     0.78700
O322        O  0.17194743  0.84820468  0.01053078    -0.57400
O323        O  0.17638377  0.80110464  0.48053933    -0.55900
O324        O  0.16690708  0.86008029  0.39788954    -0.55900
O325        O  0.20218140  0.82255785  0.40860949    -0.55100
O326        O  0.35711843  0.83533535  0.36600594    -0.56300
C327        C  0.33713408  0.79211463  0.30467120     0.76400
O328        O  0.29641930  0.84148839  0.30681415    -0.57400
C329        C  0.35778843  0.85446225  0.37021884     0.76300
C330        C  0.35175363  0.85535910  0.24548889     0.78700
Cd331      Cd  0.33394496  0.83582891  0.31176045     1.37500
O332        O  0.34684301  0.80236314  0.32915341    -0.56300
O333        O  0.36016693  0.84082527  0.26296799    -0.55100
C334        C  0.29319251  0.84109304  0.34247207     0.78700
O335        O  0.33417222  0.86023204  0.25717632    -0.57400
O336        O  0.32632754  0.80221008  0.28157694    -0.55900
O337        O  0.34806703  0.86511049  0.34638300    -0.55900
O338        O  0.30874070  0.83888302  0.36303241    -0.55100
O339        O  0.41650655  0.89584644  0.00063804    -0.56300
C340        C  0.45795066  0.91426658  0.07344584     0.76400
O341        O  0.40701661  0.95342251  0.06702540    -0.57400
C342        C  0.39745164  0.89400532  0.99710638     0.76300
C343        C  0.39397973  0.89832700  0.12323282     0.78700
Cd344      Cd  0.41476621  0.91649815  0.05894178     1.37500
O345        O  0.44897421  0.90143259  0.05234998    -0.56300
O346        O  0.41005860  0.89089392  0.10917968    -0.55100
C347        C  0.41014214  0.95793801  0.03236166     0.78700
O348        O  0.38775307  0.91479231  0.10858748    -0.57400
O349        O  0.44680292  0.92762443  0.08902145    -0.55900
O350        O  0.38651881  0.90223050  0.02249003    -0.55900
O351        O  0.41489412  0.94333413  0.01063116    -0.55100
O352        O  0.45164418  0.09339105  0.45709060    -0.56300
C353        C  0.40015006  0.10360341  0.50599683     0.76400
O354        O  0.39088741  0.08173436  0.39153865    -0.57400
C355        C  0.46013661  0.08365089  0.43031036     0.76300
C356        C  0.41215505  0.04034989  0.47003819     0.78700
Cd357      Cd  0.41683373  0.08187824  0.44277129     1.37500
O358        O  0.41791884  0.10771237  0.49422195    -0.56300
O359        O  0.41192767  0.05586534  0.49133020    -0.55100
C360        C  0.39388638  0.09991402  0.38095648     0.78700
O361        O  0.41401890  0.04391674  0.43468606    -0.57400
O362        O  0.39033787  0.09019200  0.48769115    -0.55900
O363        O  0.44851846  0.07356584  0.40859075    -0.55900
O364        O  0.40798381  0.10929978  0.39802694    -0.55100
O365        O  0.14235789  0.15539823  0.12189779    -0.56300
C366        C  0.16299166  0.20068179  0.06282750     0.76400
O367        O  0.20287831  0.14110331  0.07616905    -0.57400
C368        C  0.14782353  0.13813531  0.13415102     0.76300
C369        C  0.15090231  0.13633980  0.50790340     0.78700
Cd370      Cd  0.16856391  0.15739765  0.07242536     1.37500
O371        O  0.15394149  0.19051618  0.08830553    -0.56300
O372        O  0.14098257  0.14119767  0.03735077    -0.55100
C373        C  0.20961560  0.15308698  0.10160320     0.78700
O374        O  0.16937768  0.14191473  0.00709649    -0.57400
O375        O  0.17406388  0.19064095  0.03992320    -0.55900
O376        O  0.16291435  0.12993022  0.11788624    -0.55900
O377        O  0.19771722  0.16722988  0.11149972    -0.55100
O378        O  0.34382743  0.19384406  0.17133612    -0.56300
C379        C  0.35719950  0.14169272  0.13157252     0.76400
O380        O  0.33476707  0.13233882  0.23989201    -0.57400
C381        C  0.33279697  0.20378907  0.19430282     0.76300
C382        C  0.29141930  0.15362008  0.16507695     0.78700
Cd383      Cd  0.33274273  0.15975580  0.19065220     1.37500
O384        O  0.36276323  0.15778230  0.14853123    -0.56300
O385        O  0.30558392  0.15929070  0.14313600    -0.55100
C386        C  0.34969127  0.13988364  0.25776246     0.78700
O387        O  0.29629021  0.15063254  0.19961188    -0.57400
O388        O  0.34043711  0.13415302  0.14219450    -0.55900
O389        O  0.32215769  0.19335716  0.21724895    -0.55900
O390        O  0.35603299  0.15687052  0.24568420    -0.55100
O391        O  0.09447353  0.88702716  0.24390393    -0.56300
C392        C  0.04832466  0.91175472  0.18552365     0.76400
O393        O  0.10225899  0.95101376  0.19478766    -0.57400
C394        C  0.11156083  0.89259351  0.25678561     0.76300
C395        C  0.11186342  0.89752523  0.13049959     0.78700
Cd396      Cd  0.09166063  0.91450072  0.19665266     1.37500
O397        O  0.05769762  0.90151858  0.21041673    -0.56300
O398        O  0.09911515  0.88769048  0.15018834    -0.55100
C399        C  0.09400095  0.95553829  0.22642925     0.78700
O400        O  0.11504224  0.91581192  0.14052787    -0.57400
O401        O  0.05917616  0.92270599  0.16380619    -0.55900
O402        O  0.11939431  0.90817580  0.24152739    -0.55900
O403        O  0.08474833  0.94123063  0.24315711    -0.55100
O404        O  0.08931993  0.10475893  0.27258842    -0.56300
C405        C  0.04256083  0.08239051  0.32904238     0.76400
O406        O  0.09976122  0.04278881  0.32231397    -0.57400
C407        C  0.10598183  0.09826158  0.25923844     0.76300
C408        C  0.10693318  0.09511770  0.38630352     0.78700
Cd409      Cd  0.08581445  0.07807486  0.32130925     1.37500
O410        O  0.05290083  0.09237371  0.30510939    -0.56300
O411        O  0.10004650  0.10582729  0.35941601    -0.55100
C412        C  0.08978991  0.03679980  0.29345591     0.78700
O413        O  0.10311790  0.07621211  0.38458227    -0.57400
O414        O  0.05241419  0.07137053  0.35211266    -0.55900
O415        O  0.11315520  0.08245791  0.27475052    -0.55900
O416        O  0.07765119  0.04957858  0.27919852    -0.55100
C417        C  0.09471556  0.97646576  0.24333318    -0.03800
C418        C  0.09574474  0.97907925  0.28345748    -0.00900
C419        C  0.09467060  0.99874040  0.29985082     0.04100
C420        C  0.09225890  0.01606853  0.27643758    -0.03800
C421        C  0.09179271  0.01351118  0.23629334    -0.00900
C422        C  0.09321730  0.99389209  0.21987183     0.04100
C423        C  0.09794223  0.96152231  0.30822568     0.38700
C424        C  0.08986946  0.03110386  0.21151649     0.38700
C425        C  0.09224719  0.99173566  0.17872479     0.37100
C426        C  0.09512575  0.00090595  0.34103819     0.37100
N427        N  0.09149431  0.99010231  0.14588989    -0.37700
N428        N  0.09548278  0.00250756  0.37390475    -0.37700
N429        N  0.08817254  0.04512872  0.19183946    -0.37100
N430        N  0.09954905  0.94750722  0.32795541    -0.37100
C431        C  0.13710531  0.12798495  0.16601840    -0.03800
C432        C  0.11566032  0.12712747  0.16659718    -0.00900
C433        C  0.10544389  0.11774154  0.19727726     0.04100
C434        C  0.11663938  0.10861057  0.22718737    -0.03800
C435        C  0.13816866  0.10926841  0.22616076    -0.00900
C436        C  0.14831246  0.11903262  0.19587317     0.04100
C437        C  0.10408707  0.13503990  0.13467104     0.38700
C438        C  0.15007092  0.10051690  0.25683582     0.38700
C439        C  0.17035785  0.12040746  0.19617184     0.37100
C440        C  0.08338228  0.11707043  0.19722230     0.37100
N441        N  0.18791627  0.12149719  0.19644322    -0.37700
N442        N  0.06579303  0.11668910  0.19712528    -0.37700
N443        N  0.15963644  0.09352143  0.28117638    -0.37100
N444        N  0.09492339  0.14122701  0.10904662    -0.37100
C445        C  0.11922644  0.10447572  0.41744936    -0.03800
C446        C  0.13392606  0.11955460  0.40861055    -0.00900
C447        C  0.14462136  0.12969684  0.43793617     0.04100
C448        C  0.14105406  0.12460741  0.47647434    -0.03800
C449        C  0.12723627  0.10867625  0.48518660    -0.00900
C450        C  0.11623919  0.09880884  0.45588842     0.04100
C451        C  0.13842815  0.12443674  0.36913473     0.38700
C452        C  0.12460489  0.10207339  0.02437982     0.38700
C453        C  0.10130516  0.08337335  0.46563343     0.37100
C454        C  0.15869398  0.14593434  0.42827682     0.37100
N455        N  0.08937763  0.07110151  0.47354276    -0.37700
N456        N  0.16987275  0.15890143  0.42042735    -0.37700
N457        N  0.12263255  0.09683913  0.05566343    -0.37100
N458        N  0.14203109  0.12830806  0.33766743    -0.37100
C459        C  0.27020196  0.15114824  0.15069827    -0.03800
C460        C  0.26660866  0.14289133  0.11397330    -0.00900
C461        C  0.24679594  0.14274773  0.09836471     0.04100
C462        C  0.23026703  0.15098629  0.11923068    -0.03800
C463        C  0.23372948  0.15793828  0.15707127    -0.00900
C464        C  0.25354814  0.15814894  0.17251520     0.04100
C465        C  0.28333973  0.13441993  0.09205664     0.38700
C466        C  0.21691978  0.16477788  0.18071166     0.38700
C467        C  0.25683797  0.16662847  0.21028426     0.37100
C468        C  0.24376201  0.13465372  0.06025556     0.37100
N469        N  0.25946168  0.17343789  0.24035020    -0.37700
N470        N  0.24146886  0.12809831  0.02989591    -0.37700
N471        N  0.20359029  0.17026518  0.19969624    -0.37100
N472        N  0.29669764  0.12771706  0.07457515    -0.37100
C473        C  0.36956295  0.13205243  0.10087256    -0.03800
C474        C  0.38092262  0.14412360  0.07496141    -0.00900
C475        C  0.39171233  0.13483965  0.04473336     0.04100
C476        C  0.39106171  0.11348983  0.03996612    -0.03800
C477        C  0.38061844  0.10138769  0.06687564    -0.00900
C478        C  0.36976868  0.11058315  0.09689110     0.04100
C479        C  0.38070522  0.16618197  0.07788822     0.38700
C480        C  0.38149341  0.07929812  0.06440023     0.38700
C481        C  0.35896850  0.09769587  0.12374557     0.37100
C482        C  0.40280502  0.14738757  0.01774095     0.37100
N483        N  0.35026941  0.08727488  0.14476349    -0.37700
N484        N  0.41169086  0.15745770  0.49638668    -0.37700
N485        N  0.38224111  0.06170808  0.06259720    -0.37100
N486        N  0.38054639  0.18377937  0.08002517    -0.37100
C487        C  0.38154714  0.10984950  0.35038893    -0.03800
C488        C  0.37743016  0.13102751  0.35201734    -0.00900
C489        C  0.36679287  0.14070404  0.32216376     0.04100
C490        C  0.35963069  0.12933224  0.29059065    -0.03800
C491        C  0.36289338  0.10800362  0.28983099    -0.00900
C492        C  0.37384911  0.09835393  0.31937959     0.04100
C493        C  0.38339389  0.14292689  0.38514026     0.38700
C494        C  0.35577784  0.09589904  0.25786886     0.38700
C495        C  0.37772740  0.07661737  0.31695893     0.37100
C496        C  0.36281785  0.16241481  0.32462613     0.37100
N497        N  0.38079169  0.05928331  0.31512155    -0.37700
N498        N  0.35972849  0.17973233  0.32672360    -0.37700
N499        N  0.35014683  0.08602376  0.23263216    -0.37100
N500        N  0.38801123  0.15246317  0.41155023    -0.37100
C501        C  0.40902396  0.97923382  0.01766859    -0.03800
C502        C  0.41721215  0.99551053  0.03913786    -0.00900
C503        C  0.41802440  0.01534140  0.02371291     0.04100
C504        C  0.41071977  0.01927622  0.48633521    -0.03800
C505        C  0.40217917  0.00297327  0.46510660    -0.00900
C506        C  0.40116155  0.98316849  0.48085722     0.04100
C507        C  0.42587314  0.99178258  0.07652233     0.38700
C508        C  0.39415787  0.00641459  0.42715668     0.38700
C509        C  0.39151364  0.96687684  0.45935177     0.37100
C510        C  0.42738930  0.03143216  0.04616691     0.37100
N511        N  0.38379124  0.95385770  0.44239488    -0.37700
N512        N  0.43483117  0.04421230  0.06415819    -0.37700
N513        N  0.38780764  0.00897281  0.39676814    -0.37100
N514        N  0.43285499  0.98893089  0.10631222    -0.37100
C515        C  0.38826011  0.88302505  0.46459298    -0.03800
C516        C  0.39365353  0.88826643  0.42686601    -0.00900
C517        C  0.38376683  0.87885435  0.39585663     0.04100
C518        C  0.36877921  0.86386801  0.40244206    -0.03800
C519        C  0.36382837  0.85818594  0.44015992    -0.00900
C520        C  0.37347538  0.86781994  0.47116228     0.04100
C521        C  0.40892641  0.90380706  0.41990117     0.38700
C522        C  0.34825993  0.84293306  0.44714698     0.38700
C523        C  0.36853573  0.86173773  0.00986160     0.37100
C524        C  0.38914198  0.88453976  0.35720063     0.37100
N525        N  0.36470651  0.85687018  0.04074567    -0.37700
N526        N  0.39347259  0.88928004  0.32649462    -0.37700
N527        N  0.33583607  0.83077868  0.45262342    -0.37100
N528        N  0.42115249  0.91615835  0.41440964    -0.37100
C529        C  0.36238575  0.86642618  0.21390910    -0.03800
C530        C  0.35145316  0.87427197  0.18241672    -0.00900
C531        C  0.36173885  0.88475333  0.15288842     0.04100
C532        C  0.38297484  0.88796785  0.15490021    -0.03800
C533        C  0.39387667  0.88030999  0.18638357    -0.00900
C534        C  0.38374650  0.86944091  0.21544240     0.04100
C535        C  0.32971661  0.87088139  0.17933036     0.38700
C536        C  0.41558760  0.88402069  0.18946644     0.38700
C537        C  0.39553940  0.86166680  0.24717715     0.37100
C538        C  0.35059110  0.89121671  0.11935034     0.37100
N539        N  0.40509515  0.85533893  0.27216288    -0.37700
N540        N  0.34176119  0.89622337  0.09243986    -0.37700
N541        N  0.43288173  0.88698663  0.19199702    -0.37100
N542        N  0.31237468  0.86823678  0.17669349    -0.37100
C543        C  0.14166338  0.86116656  0.34884583    -0.03800
C544        C  0.12021788  0.86218768  0.34783753    -0.00900
C545        C  0.11040228  0.87291666  0.31835544     0.04100
C546        C  0.12187923  0.88151720  0.28821221    -0.03800
C547        C  0.14332331  0.87974430  0.28855691    -0.00900
C548        C  0.15317065  0.87012135  0.31924611     0.04100
C549        C  0.10818575  0.85284467  0.37784256     0.38700
C550        C  0.15538654  0.88725256  0.25684719     0.38700
C551        C  0.17522667  0.86911805  0.31984107     0.37100
C552        C  0.08860200  0.87616281  0.32052321     0.37100
N553        N  0.19280481  0.86849418  0.32040969    -0.37700
N554        N  0.07126740  0.87898122  0.32249756    -0.37700
N555        N  0.16507332  0.89311865  0.23156781    -0.37100
N556        N  0.09854168  0.84526968  0.40153962    -0.37100
C557        C  0.14327119  0.86599477  0.03918045    -0.03800
C558        C  0.12197519  0.86378599  0.04412462    -0.00900
C559        C  0.11167891  0.87495321  0.07258355     0.04100
C560        C  0.12257253  0.88772823  0.09781235    -0.03800
C561        C  0.14381474  0.88996969  0.09304130    -0.00900
C562        C  0.15404119  0.87948877  0.06342367     0.04100
C563        C  0.11052757  0.84949051  0.02084468     0.38700
C564        C  0.15537835  0.90245211  0.11946254     0.38700
C565        C  0.17555004  0.88318390  0.05730140     0.37100
C566        C  0.08966848  0.87370063  0.07508145     0.37100
N567        N  0.19267743  0.88625229  0.05228119    -0.37700
N568        N  0.07211827  0.87280013  0.07681142    -0.37700
N569        N  0.16466501  0.91230977  0.14060177    -0.37100
N570        N  0.10138636  0.83805613  0.00242610    -0.37100
C571        C  0.23379853  0.83981820  0.39678229    -0.03800
C572        C  0.23631882  0.83274033  0.35880916    -0.00900
C573        C  0.25547374  0.83366505  0.34071696     0.04100
C574        C  0.27238676  0.84227531  0.35976788    -0.03800
C575        C  0.26954983  0.85060876  0.39679779    -0.00900
C576        C  0.25050008  0.84908232  0.41540309     0.04100
C577        C  0.21911082  0.82466921  0.33762000     0.38700
C578        C  0.28612380  0.86113426  0.41585058     0.38700
C579        C  0.24842867  0.85640285  0.45428800     0.37100
C580        C  0.25773469  0.82484257  0.30296153     0.37100
N581        N  0.24681075  0.86220124  0.48534870    -0.37700
N582        N  0.25932671  0.81769908  0.27289660    -0.37700
N583        N  0.29924451  0.86961081  0.43110874    -0.37100
N584        N  0.20543748  0.81824445  0.32068168    -0.37100
C585        C  0.40740504  0.47773318  0.48005904    -0.03800
C586        C  0.42636422  0.48606039  0.49095777    -0.00900
C587        C  0.42725365  0.50488952  0.01018929     0.04100
C588        C  0.40918602  0.51559779  0.01877166    -0.03800
C589        C  0.39022060  0.50733246  0.00777186    -0.00900
C590        C  0.38934252  0.48848843  0.48828917     0.04100
C591        C  0.44510773  0.47562775  0.48099899     0.38700
C592        C  0.37166375  0.51862718  0.01491641     0.38700
C593        C  0.36983500  0.48008511  0.47709428     0.37100
C594        C  0.44686648  0.51318031  0.02129877     0.37100
N595        N  0.35427524  0.47341860  0.46801731    -0.37700
N596        N  0.46252383  0.51977274  0.02998815    -0.37700
N597        N  0.35684160  0.52764334  0.02043674    -0.37100
N598        N  0.46001780  0.46733980  0.47285185    -0.37100
C599        C  0.33894098  0.72613614  0.30489506    -0.03800
C600        C  0.33870323  0.73682396  0.26995451    -0.00900
C601        C  0.33847185  0.75836652  0.26965564     0.04100
C602        C  0.33799500  0.76941913  0.30433865    -0.03800
C603        C  0.33817670  0.75865381  0.33929366    -0.00900
C604        C  0.33894480  0.73720257  0.33955574     0.04100
C605        C  0.33926795  0.72567576  0.23420641     0.38700
C606        C  0.33651457  0.76951900  0.37531073     0.38700
C607        C  0.33883907  0.72656323  0.37583966     0.37100
C608        C  0.33941291  0.76908039  0.23357035     0.37100
N609        N  0.33881599  0.71813958  0.40479595    -0.37700
N610        N  0.34026226  0.77755507  0.20470890    -0.37700
N611        N  0.33510048  0.77813016  0.40402845    -0.37100
N612        N  0.33970105  0.71675241  0.20571828    -0.37100
C613        C  0.36275223  0.62985757  0.21733096    -0.03800
C614        C  0.35540962  0.61070114  0.20471044    -0.00900
C615        C  0.36586234  0.59970794  0.17603227     0.04100
C616        C  0.38405882  0.60750412  0.16011192    -0.03800
C617        C  0.39165323  0.62642962  0.17339194    -0.00900
C618        C  0.38094471  0.63764388  0.20131398     0.04100
C619        C  0.33763984  0.60168419  0.22255039     0.38700
C620        C  0.41105156  0.63406807  0.15960972     0.38700
C621        C  0.38872706  0.65737226  0.21318557     0.37100
C622        C  0.35760122  0.58045785  0.16269936     0.37100
N623        N  0.39502640  0.67306162  0.22261742    -0.37700
N624        N  0.35098182  0.56509133  0.15222632    -0.37700
N625        N  0.42657906  0.64003190  0.14874056    -0.37100
N626        N  0.32356672  0.59441982  0.23700799    -0.37100
C627        C  0.38245313  0.60807666  0.47101880    -0.03800
C628        C  0.39259827  0.62407990  0.45166312    -0.00900
C629        C  0.38329080  0.63393748  0.42062859     0.04100
C630        C  0.36332337  0.62860469  0.40939306    -0.03800
C631        C  0.35281953  0.61320521  0.42968359    -0.00900
C632        C  0.36235108  0.60289326  0.46005926     0.04100
C633        C  0.41240756  0.63113702  0.46442165     0.38700
C634        C  0.33188533  0.60827728  0.42023418     0.38700
C635        C  0.35124781  0.58687196  0.47961815     0.37100
C636        C  0.39472496  0.64924475  0.39977323     0.37100
N637        N  0.34216639  0.57422688  0.49507757    -0.37700
N638        N  0.40399837  0.66138885  0.38334986    -0.37700
N639        N  0.31519167  0.60436603  0.41275966    -0.37100
N640        N  0.42814767  0.63677367  0.47478727    -0.37100
C641        C  0.16309126  0.72444569  0.45660799    -0.03800
C642        C  0.18040501  0.73440697  0.47182880    -0.00900
C643        C  0.18122304  0.75589522  0.47362213     0.04100
C644        C  0.16474480  0.76772605  0.46020564    -0.03800
C645        C  0.14692679  0.75771769  0.44738177    -0.00900
C646        C  0.14606647  0.73623830  0.44581378     0.04100
C647        C  0.19801781  0.72271511  0.48364803     0.38700
C648        C  0.12931417  0.76948312  0.43582381     0.38700
C649        C  0.12744052  0.72632463  0.43353140     0.37100
C650        C  0.19967749  0.76569585  0.48707394     0.37100
N651        N  0.11252697  0.71850294  0.42385781    -0.37700
N652        N  0.21444620  0.77339839  0.49780256    -0.37700
N653        N  0.11529989  0.77886429  0.42649792    -0.37100
N654        N  0.21207856  0.71343886  0.49309597    -0.37100
C655        C  0.23083160  0.65807099  0.38728620    -0.03800
C656        C  0.24059332  0.63947215  0.37835571    -0.00900
C657        C  0.26037919  0.63945665  0.36245262     0.04100
C658        C  0.27066276  0.65802994  0.35560607    -0.03800
C659        C  0.26081449  0.67662249  0.36429111    -0.00900
C660        C  0.24104841  0.67664259  0.37999693     0.04100
C661        C  0.23007045  0.62031104  0.38441849     0.38700
C662        C  0.27079115  0.69587957  0.35609688     0.38700
C663        C  0.23143512  0.69589847  0.38951001     0.37100
C664        C  0.27032773  0.62025744  0.35407129     0.37100
N665        N  0.22375108  0.71123729  0.39706211    -0.37700
N666        N  0.27825481  0.60493753  0.34733812    -0.37700
N667        N  0.27874160  0.71121855  0.34950795    -0.37100
N668        N  0.22167183  0.60502183  0.38921257    -0.37100
C669        C  0.33214411  0.22649318  0.19330867    -0.03800
C670        C  0.33135365  0.23665602  0.15780204    -0.00900
C671        C  0.33123957  0.25813152  0.15626604     0.04100
C672        C  0.33216979  0.26981675  0.19021073    -0.03800
C673        C  0.33260819  0.25966270  0.22575792    -0.00900
C674        C  0.33235998  0.23812259  0.22731168     0.04100
C675        C  0.32963549  0.22503549  0.12263876     0.38700
C676        C  0.33400196  0.27134222  0.26082449     0.38700
C677        C  0.33276476  0.22798608  0.26400686     0.37100
C678        C  0.32913087  0.26812101  0.11957749     0.37100
N679        N  0.33296572  0.21992034  0.29331239    -0.37700
N680        N  0.32735562  0.27605837  0.09033961    -0.37700
N681        N  0.33517781  0.28072040  0.28872137    -0.37100
N682        N  0.32820423  0.21578397  0.09463317    -0.37100
C683        C  0.37437057  0.38719857  0.01994235    -0.03800
C684        C  0.36649976  0.39878358  0.05056164    -0.00900
C685        C  0.35607209  0.38905167  0.08060248     0.04100
C686        C  0.35369063  0.36760218  0.08043549    -0.03800
C687        C  0.36057281  0.35623978  0.04862479    -0.00900
C688        C  0.37109012  0.36596137  0.01875242     0.04100
C689        C  0.36990164  0.42064532  0.05204656     0.38700
C690        C  0.35587013  0.33468982  0.04553800     0.38700
C691        C  0.37800730  0.35414040  0.98618384     0.37100
C692        C  0.34818109  0.40123311  0.11186260     0.37100
N693        N  0.38352276  0.34476539  0.46018128    -0.37700
N694        N  0.34177241  0.41109667  0.13647641    -0.37700
N695        N  0.35189868  0.31755973  0.04295680    -0.37100
N696        N  0.37268385  0.43805734  0.05312977    -0.37100
C697        C  0.37561942  0.39058301  0.33271733    -0.03800
C698        C  0.36021270  0.37622557  0.34133058    -0.00900
C699        C  0.35058612  0.36510242  0.31191386     0.04100
C700        C  0.35569864  0.36876142  0.27339271    -0.03800
C701        C  0.37038618  0.38388647  0.26470324    -0.00900
C702        C  0.38033561  0.39468915  0.29422448     0.04100
C703        C  0.35364094  0.37346725  0.38051912     0.38700
C704        C  0.37504218  0.38865347  0.22525919     0.38700
C705        C  0.39578669  0.40967023  0.28492287     0.37100
C706        C  0.33611107  0.34922152  0.32155107     0.37100
N707        N  0.40808521  0.42165441  0.27749841    -0.37700
N708        N  0.32469448  0.33644913  0.32931797    -0.37700
N709        N  0.37869787  0.39242805  0.19376730    -0.37100
N710        N  0.34820689  0.37151116  0.41170040    -0.37100
C711        C  0.16122838  0.22329485  0.06116475    -0.03800
C712        C  0.16190634  0.23483068  0.09530554    -0.00900
C713        C  0.16084767  0.25626945  0.09414835     0.04100
C714        C  0.15927514  0.26651731  0.05881733    -0.03800
C715        C  0.15837485  0.25502677  0.02473006    -0.00900
C716        C  0.15921784  0.23350854  0.02590351     0.04100
C717        C  0.16459004  0.22476735  0.13180960     0.38700
C718        C  0.15590980  0.26531556  0.48847785     0.38700
C719        C  0.15719519  0.22188799  0.49088522     0.37100
C720        C  0.16230248  0.26775158  0.12951356     0.37100
N721        N  0.15545450  0.21261508  0.46297075    -0.37700
N722        N  0.16346251  0.27681235  0.15778092    -0.37700
N723        N  0.15390575  0.27358227  0.45961791    -0.37100
N724        N  0.16673633  0.21678496  0.16092011    -0.37100
C725        C  0.26421780  0.33707023  0.14022178    -0.03800
C726        C  0.25528958  0.35508416  0.12604609    -0.00900
C727        C  0.23565225  0.35451536  0.10979886     0.04100
C728        C  0.22478225  0.33594976  0.10779997    -0.03800
C729        C  0.23364998  0.31798916  0.12248199    -0.00900
C730        C  0.25321304  0.31858439  0.13878413     0.04100
C731        C  0.26647964  0.37413686  0.12728649     0.38700
C732        C  0.22294240  0.29866980  0.11977808     0.38700
C733        C  0.26178032  0.30021188  0.15518664     0.37100
C734        C  0.22643736  0.37316826  0.09608592     0.37100
N735        N  0.26856082  0.28560838  0.16848794    -0.37700
N736        N  0.21905776  0.38804556  0.08518933    -0.37700
N737        N  0.21445987  0.28325136  0.11754596    -0.37100
N738        N  0.27537681  0.38935294  0.12831293    -0.37100
C739        C  0.13878218  0.63196359  0.33113331    -0.03800
C740        C  0.11783902  0.62753161  0.33298824    -0.00900
C741        C  0.10822514  0.61743915  0.30247975     0.04100
C742        C  0.11962996  0.61127606  0.27014979    -0.03800
C743        C  0.14063805  0.61593338  0.26828205    -0.00900
C744        C  0.15012391  0.62637360  0.29860309     0.04100
C745        C  0.10634759  0.63246026  0.36718409     0.38700
C746        C  0.15246073  0.61060984  0.23473849     0.38700
C747        C  0.17144221  0.63197140  0.29584433     0.37100
C748        C  0.08668183  0.61288042  0.30526518     0.37100
N749        N  0.18839425  0.63658098  0.29366375    -0.37700
N750        N  0.06947136  0.60943416  0.30761315    -0.37700
N751        N  0.16193103  0.60638630  0.20803581    -0.37100
N752        N  0.09724803  0.63628096  0.39454127    -0.37100
C753        C  0.13794965  0.62451893  0.01929008    -0.03800
C754        C  0.14726304  0.60749146  0.03674679    -0.00900
C755        C  0.13736499  0.59702830  0.06675731     0.04100
C756        C  0.11758552  0.60282327  0.07847083    -0.03800
C757        C  0.10790407  0.61922742  0.05974216    -0.00900
C758        C  0.11818900  0.63032978  0.03120457     0.04100
C759        C  0.16695118  0.60042916  0.02354794     0.38700
C760        C  0.08716921  0.62475536  0.06960345     0.38700
C761        C  0.10865925  0.64845708  0.01575593     0.37100
C762        C  0.14814615  0.58108145  0.08691027     0.37100
N763        N  0.10104261  0.66299032  0.00384363    -0.37700
N764        N  0.15690625  0.56852908  0.10314121    -0.37700
N765        N  0.07065045  0.62914339  0.07747778    -0.37100
N766        N  0.18261318  0.59474289  0.01290537    -0.37100
C767        C  0.13495623  0.36332975  0.46585558    -0.03800
C768        C  0.14040624  0.38369249  0.45719795    -0.00900
C769        C  0.12976178  0.39469100  0.42884411     0.04100
C770        C  0.11312522  0.38567643  0.40940816    -0.03800
C771        C  0.10739679  0.36547375  0.41894065    -0.00900
C772        C  0.11856104  0.35424155  0.44603659     0.04100
C773        C  0.15649066  0.39374643  0.47843546     0.38700
C774        C  0.08941301  0.35629451  0.40210889     0.38700
C775        C  0.11337540  0.33302683  0.45267246     0.37100
C776        C  0.13628446  0.41520079  0.41945304     0.37100
N777        N  0.10927185  0.31609384  0.45775393    -0.37700
N778        N  0.14152960  0.43156418  0.41204662    -0.37700
N779        N  0.07500787  0.34900235  0.38894147    -0.37100
N780        N  0.16923042  0.40183423  0.99547110    -0.37100
C781        C  0.11213225  0.38530191  0.21691012    -0.03800
C782        C  0.10126644  0.37147507  0.19344230    -0.00900
C783        C  0.11078678  0.36234585  0.16172858     0.04100
C784        C  0.13159379  0.36601153  0.15421480    -0.03800
C785        C  0.14246804  0.37987739  0.17741441    -0.00900
C786        C  0.13273266  0.38974371  0.20812469     0.04100
C787        C  0.08043244  0.36584177  0.20238097     0.38700
C788        C  0.16396443  0.38362820  0.17071567     0.38700
C789        C  0.14405350  0.40469310  0.23012647     0.37100
C790        C  0.09887744  0.34963772  0.13618531     0.37100
N791        N  0.15315008  0.41658844  0.24762139    -0.37700
N792        N  0.08930290  0.33962309  0.11573138    -0.37700
N793        N  0.18107920  0.38666409  0.16560831    -0.37100
N794        N  0.06388568  0.36116749  0.20938832    -0.37100
C795        C  0.09493873  0.47663602  0.26569534    -0.03800
C796        C  0.09770112  0.47854250  0.22575810    -0.00900
C797        C  0.09840278  0.49796475  0.20846557     0.04100
C798        C  0.09662571  0.51583609  0.23096630    -0.03800
C799        C  0.09573177  0.51385045  0.27126665    -0.00900
C800        C  0.09458887  0.49442925  0.28840168     0.04100
C801        C  0.10005996  0.46047186  0.20216666     0.38700
C802        C  0.09627519  0.53176467  0.29563321     0.38700
C803        C  0.09206122  0.49294843  0.32941532     0.37100
C804        C  0.10041473  0.49928365  0.16732118     0.37100
N805        N  0.08999971  0.49185020  0.36212903    -0.37700
N806        N  0.10210934  0.50021069  0.13450808    -0.37700
N807        N  0.09675680  0.54599562  0.31515761    -0.37100
N808        N  0.10197023  0.44610045  0.18332434    -0.37100
C809        C  0.77176772  0.84285022  0.39634641    -0.03800
C810        C  0.76852189  0.84991369  0.35877708    -0.00900
C811        C  0.74886384  0.84951099  0.34262240     0.04100
C812        C  0.73214561  0.84203788  0.36391666    -0.03800
C813        C  0.73531062  0.83596322  0.40230411    -0.00900
C814        C  0.75499200  0.83636840  0.41834006     0.04100
C815        C  0.78544584  0.85787889  0.33671395     0.38700
C816        C  0.71835907  0.82929464  0.42575380     0.38700
C817        C  0.75802538  0.82919407  0.45703489     0.37100
C818        C  0.74617418  0.85604836  0.30346478     0.37100
N819        N  0.76033632  0.82344442  0.48789562    -0.37700
N820        N  0.74407811  0.86127781  0.27222350    -0.37700
N821        N  0.70490082  0.82390248  0.44450984    -0.37100
N822        N  0.79893228  0.86426418  0.31916856    -0.37100
C823        C  0.52358977  0.91372971  0.07993057    -0.03800
C824        C  0.51299048  0.93240723  0.07897146    -0.00900
C825        C  0.49155774  0.93260093  0.07803184     0.04100
C826        C  0.48046746  0.91408507  0.07839176    -0.03800
C827        C  0.49113519  0.89544107  0.08150239    -0.00900
C828        C  0.51260304  0.89527699  0.08212056     0.04100
C829        C  0.52414655  0.95149211  0.07701240     0.38700
C830        C  0.48007844  0.87640864  0.08520462     0.38700
C831        C  0.52341518  0.87613905  0.08615323     0.37100
C832        C  0.48109104  0.95194511  0.07456518     0.37100
N833        N  0.53209809  0.86093303  0.08958610    -0.37700
N834        N  0.47286073  0.96742973  0.07172304    -0.37700
N835        N  0.47131605  0.86120465  0.08839267    -0.37100
N836        N  0.53309123  0.96666627  0.07550997    -0.37100
C837        C  0.61912828  0.88266864  0.47323296    -0.03800
C838        C  0.64059851  0.88123669  0.47260473    -0.00900
C839        C  0.65051224  0.87167917  0.44184624     0.04100
C840        C  0.63906375  0.86284237  0.41206306    -0.03800
C841        C  0.61763675  0.86327181  0.41354153    -0.00900
C842        C  0.60767033  0.87337315  0.44371392     0.04100
C843        C  0.65268134  0.88889622  0.50422152     0.38700
C844        C  0.60574826  0.85400202  0.38320844     0.38700
C845        C  0.58566203  0.87478173  0.44336015     0.37100
C846        C  0.67254954  0.87056699  0.44141860     0.37100
N847        N  0.56809116  0.87591166  0.44309806    -0.37700
N848        N  0.69013708  0.86986888  0.44125184    -0.37700
N849        N  0.59625561  0.84657595  0.35916068    -0.37100
N850        N  0.66242118  0.89485244  0.52932089    -0.37100
C851        C  0.64231717  0.86585398  0.21918240    -0.03800
C852        C  0.65037655  0.88376223  0.20264048    -0.00900
C853        C  0.64001569  0.89350799  0.17254907     0.04100
C854        C  0.62104499  0.88595828  0.15971003    -0.03800
C855        C  0.61300335  0.86801090  0.17628025    -0.00900
C856        C  0.62376256  0.85782802  0.20524546     0.04100
C857        C  0.66893778  0.89273209  0.21742984     0.38700
C858        C  0.59332510  0.86015873  0.16448639     0.38700
C859        C  0.61584041  0.83871600  0.21996535     0.37100
C860        C  0.64933400  0.91093247  0.15399855     0.37100
N861        N  0.60953293  0.82346599  0.23155742    -0.37700
N862        N  0.65678503  0.92474658  0.13899467    -0.37700
N863        N  0.57763935  0.85384084  0.15526970    -0.37100
N864        N  0.68366862  0.90003298  0.22926258    -0.37100
C865        C  0.52571531  0.08254942  0.42499062    -0.03800
C866        C  0.51534955  0.10121153  0.43004798    -0.00900
C867        C  0.49392267  0.10171929  0.43048255     0.04100
C868        C  0.48261075  0.08357619  0.42553402    -0.03800
C869        C  0.49297117  0.06509587  0.41814768    -0.00900
C870        C  0.51443075  0.06458718  0.41780264     0.04100
C871        C  0.52675107  0.12002731  0.43444807     0.38700
C872        C  0.48162440  0.04626576  0.41346255     0.38700
C873        C  0.52477754  0.04527095  0.41243577     0.37100
C874        C  0.48358653  0.12103899  0.43578215     0.37100
N875        N  0.53297267  0.02983764  0.40821321    -0.37700
N876        N  0.47547116  0.13650759  0.44006794    -0.37700
N877        N  0.47251199  0.03128649  0.40987793    -0.37100
N878        N  0.53589498  0.13499202  0.43793350    -0.37100
C879        C  0.59703536  0.01817731  0.49508506    -0.03800
C880        C  0.58971068  0.01434940  0.03273322    -0.00900
C881        C  0.58994494  0.99441404  0.04794943     0.04100
C882        C  0.59699028  0.97793295  0.02577236    -0.03800
C883        C  0.60518388  0.98170509  0.48927744    -0.00900
C884        C  0.60567373  0.00166857  0.47436630     0.04100
C885        C  0.58159081  0.03061900  0.05636104     0.38700
C886        C  0.61347241  0.96495593  0.46705997     0.38700
C887        C  0.61552307  0.00494209  0.43783660     0.37100
C888        C  0.58204869  0.99073779  0.08604014     0.37100
N889        N  0.62353654  0.00747844  0.40882532    -0.37700
N890        N  0.57582459  0.98775625  0.11641073    -0.37700
N891        N  0.62000052  0.95156887  0.44937137    -0.37100
N892        N  0.57506388  0.04339793  0.07558782    -0.37100
C893        C  0.02571170  0.91142912  0.18339710    -0.03800
C894        C  0.01547756  0.91105912  0.14791796    -0.00900
C895        C  0.99398918  0.91087504  0.14667822     0.04100
C896        C  0.98259274  0.91095354  0.18084158    -0.03800
C897        C  0.99281512  0.91130777  0.21627003    -0.00900
C898        C  0.01420405  0.91177730  0.21753591     0.04100
C899        C  0.02696216  0.91046808  0.11261054     0.38700
C900        C  0.98134280  0.91217806  0.25168672     0.38700
C901        C  0.02427869  0.91388874  0.25417839     0.37100
C902        C  0.98360130  0.91001597  0.11023808     0.37100
N903        N  0.03230051  0.91572427  0.28333775    -0.37700
N904        N  0.97525241  0.90929395  0.08123789    -0.37700
N905        N  0.97219259  0.91285448  0.27987584    -0.37100
N906        N  0.03603783  0.91003437  0.08432688    -0.37100
C907        C  0.86672216  0.86732334  0.34471679    -0.03800
C908        C  0.86942998  0.88874662  0.34536798    -0.00900
C909        C  0.87936709  0.89869951  0.31494494     0.04100
C910        C  0.88715593  0.88731361  0.28399402    -0.03800
C911        C  0.88481688  0.86592858  0.28355319    -0.00900
C912        C  0.87443599  0.85599751  0.31345935     0.04100
C913        C  0.86267015  0.90063642  0.37794952     0.38700
C914        C  0.89240580  0.85413803  0.25145283     0.38700
C915        C  0.87095436  0.83421092  0.31093866     0.37100
C916        C  0.88211104  0.92064765  0.31607112     0.37100
N917        N  0.86815412  0.81683413  0.30864545    -0.37700
N918        N  0.88430894  0.93815031  0.31675222    -0.37700
N919        N  0.89852501  0.84485380  0.22582428    -0.37100
N920        N  0.85737245  0.91015208  0.40392309    -0.37100
C921        C  0.86248263  0.87088847  0.03220690    -0.03800
C922        C  0.85551006  0.86959427  0.07024724    -0.00900
C923        C  0.86595461  0.87989461  0.09974509     0.04100
C924        C  0.88352933  0.89163439  0.09160746    -0.03800
C925        C  0.89005181  0.89355252  0.05336390    -0.00900
C926        C  0.87960296  0.88322172  0.02387150     0.04100
C927        C  0.83808991  0.85695442  0.07952622     0.38700
C928        C  0.90803914  0.90542816  0.04431650     0.38700
C929        C  0.88641298  0.88551154  0.48473224     0.37100
C930        C  0.85840713  0.87853907  0.13860534     0.37100
N931        N  0.89187939  0.88731540  0.45354105    -0.37700
N932        N  0.85250081  0.87750248  0.16964996    -0.37700
N933        N  0.92238733  0.91485910  0.03691822    -0.37100
N934        N  0.82423908  0.84687946  0.08726025    -0.37100
C935        C  0.97695638  0.08358652  0.32416784    -0.03800
C936        C  0.98689564  0.08526517  0.35980554    -0.00900
C937        C  0.00835943  0.08463896  0.36175550     0.04100
C938        C  0.02000034  0.08277738  0.32803864    -0.03800
C939        C  0.01001759  0.08072311  0.29255070    -0.00900
C940        C  0.98866123  0.08102073  0.29064122     0.04100
C941        C  0.97514792  0.08817085  0.39442073     0.38700
C942        C  0.02168685  0.07707052  0.25798810     0.38700
C943        C  0.97878460  0.07750840  0.25416256     0.37100
C944        C  0.01842776  0.08615378  0.39842724     0.37100
N945        N  0.97095801  0.07457629  0.22512572    -0.37700
N946        N  0.02644965  0.08721800  0.42771355    -0.37700
N947        N  0.03102439  0.07406139  0.23055463    -0.37100
N948        N  0.96587695  0.09052051  0.42215597    -0.37100
C949        C  0.91356327  0.97912893  0.23382741    -0.03800
C950        C  0.93163034  0.98954351  0.24401272    -0.00900
C951        C  0.93062340  0.00904865  0.26070008     0.04100
C952        C  0.91160596  0.01834965  0.26734888    -0.03800
C953        C  0.89354354  0.00790233  0.25781550    -0.00900
C954        C  0.89451063  0.98833222  0.24115345     0.04100
C955        C  0.95138076  0.98045765  0.23673128     0.38700
C956        C  0.87396758  0.01750577  0.26412840     0.38700
C957        C  0.87585095  0.97738774  0.23285474     0.37100
C958        C  0.94922383  0.01938927  0.27197983     0.37100
N959        N  0.86102299  0.96854626  0.22629809    -0.37700
N960        N  0.96397517  0.02767836  0.28115739    -0.37700
N961        N  0.85835103  0.02516688  0.26912008    -0.37100
N962        N  0.96716156  0.97326581  0.23110966    -0.37100
C963        C  0.62116815  0.11246182  0.03542349    -0.03800
C964        C  0.64249733  0.11563733  0.03523036    -0.00900
C965        C  0.65199706  0.12552462  0.06617172     0.04100
C966        C  0.64027052  0.13246589  0.09728911    -0.03800
C967        C  0.61904207  0.12952855  0.09745665    -0.00900
C968        C  0.60952530  0.11939115  0.06690658     0.04100
C969        C  0.65478942  0.10913595  0.00300515     0.38700
C970        C  0.60701266  0.13617766  0.12994190     0.38700
C971        C  0.58788339  0.11519216  0.06915299     0.37100
C972        C  0.67379108  0.12912257  0.06549483     0.37100
N973        N  0.57064044  0.11176898  0.07109319    -0.37700
N974        N  0.69115414  0.13205248  0.06510210    -0.37700
N975        N  0.59742894  0.14144907  0.15581844    -0.37100
N976        N  0.66465459  0.10392547  0.47746091    -0.37100
C977        C  0.64260086  0.13119946  0.29017544    -0.03800
C978        C  0.62446493  0.13895520  0.30608922    -0.00900
C979        C  0.61398168  0.12798024  0.33453827     0.04100
C980        C  0.62201732  0.10944640  0.34883392    -0.03800
C981        C  0.64058611  0.10205234  0.33363491    -0.00900
C982        C  0.65060845  0.11269948  0.30402941     0.04100
C983        C  0.61687870  0.15868268  0.29398816     0.38700
C984        C  0.64989245  0.08384923  0.34913812     0.38700
C985        C  0.66881809  0.10419597  0.28694424     0.37100
C986        C  0.59458543  0.13568827  0.34810606     0.37100
N987        N  0.68327651  0.09732004  0.27320390    -0.37700
N988        N  0.57911440  0.14188883  0.35874669    -0.37700
N989        N  0.65744882  0.06940665  0.36154563    -0.37100
N990        N  0.61102000  0.17448109  0.28444409    -0.37100
C991        C  0.86032873  0.13028913  0.15388422    -0.03800
C992        C  0.84889061  0.12087828  0.18309565    -0.00900
C993        C  0.85882968  0.11133593  0.21381182     0.04100
C994        C  0.88033810  0.11090420  0.21537131    -0.03800
C995        C  0.89175085  0.12022616  0.18592250    -0.00900
C996        C  0.88179283  0.13000255  0.15551496     0.04100
C997        C  0.82682695  0.12174987  0.18252338     0.38700
C998        C  0.91380497  0.11920872  0.18599113     0.38700
C999        C  0.89376129  0.13924052  0.12530009     0.37100
C1000       C  0.84678649  0.10271727  0.24454568     0.37100
N1001       N  0.90333658  0.14664425  0.10131862    -0.37700
N1002       N  0.83719273  0.09588633  0.26909089    -0.37700
N1003       N  0.93137837  0.11837467  0.18610410    -0.37100
N1004       N  0.80925070  0.12248523  0.18209427    -0.37100
C1005       C  0.85886227  0.12884722  0.46365935    -0.03800
C1006       C  0.84842025  0.11532606  0.43905576    -0.00900
C1007       C  0.85907915  0.10476196  0.41017613     0.04100
C1008       C  0.88023946  0.10766973  0.40556503    -0.03800
C1009       C  0.89062957  0.12139000  0.42976894    -0.00900
C1010       C  0.87999853  0.13203313  0.45841297     0.04100
C1011       C  0.82672150  0.11211846  0.44342258     0.38700
C1012       C  0.91238925  0.12451271  0.42550837     0.38700
C1013       C  0.89080200  0.14701254  0.48128420     0.37100
C1014       C  0.84803584  0.09161086  0.38408346     0.37100
N1015       N  0.89940616  0.15902106  0.49932836    -0.37700
N1016       N  0.83923554  0.08119225  0.36315645    -0.37700
N1017       N  0.92970805  0.12708306  0.42206806    -0.37100
N1018       N  0.80938328  0.10964567  0.44671852    -0.37100
C1019       C  0.73101001  0.16021490  0.14632381    -0.03800
C1020       C  0.74015050  0.14141432  0.13660895    -0.00900
C1021       C  0.75913801  0.14104264  0.11770049     0.04100
C1022       C  0.76881610  0.15944703  0.10729144    -0.03800
C1023       C  0.75954114  0.17823430  0.11668283    -0.00900
C1024       C  0.74102415  0.17859757  0.13691867     0.04100
C1025       C  0.72979018  0.12242046  0.14495932     0.38700
C1026       C  0.76866345  0.19729948  0.10443467     0.38700
C1027       C  0.73263734  0.19797237  0.14930834     0.37100
C1028       C  0.76904657  0.12171320  0.11019702     0.37100
N1029       N  0.72600006  0.21336094  0.15956180    -0.37700
N1030       N  0.77708801  0.10635092  0.10434353    -0.37700
N1031       N  0.77579418  0.21251012  0.09442730    -0.37100
N1032       N  0.72152541  0.10723925  0.15144204    -0.37100
C1033       C  0.66463000  0.72749986  0.29460741    -0.03800
C1034       C  0.68235203  0.73796442  0.28266475    -0.00900
C1035       C  0.68273761  0.75947035  0.28200188     0.04100
C1036       C  0.66541399  0.77070879  0.29334754    -0.03800
C1037       C  0.64711089  0.76021951  0.30142254    -0.00900
C1038       C  0.64671696  0.73872231  0.30197676     0.04100
C1039       C  0.70067801  0.72674420  0.27326676     0.38700
C1040       C  0.62858097  0.77156133  0.30880739     0.38700
C1041       C  0.62773632  0.72817298  0.30953033     0.37100
C1042       C  0.70143972  0.76992318  0.27188755     0.37100
N1043       N  0.61251614  0.71985589  0.31528190    -0.37700
N1044       N  0.71632298  0.77829506  0.26378873    -0.37700
N1045       N  0.61386557  0.78071717  0.31458842    -0.37100
N1046       N  0.71530805  0.71782888  0.26569281    -0.37100
C1047       C  0.83751122  0.72743087  0.46052686    -0.03800
C1048       C  0.85501281  0.73818238  0.44820740    -0.00900
C1049       C  0.85487390  0.75965526  0.44600190     0.04100
C1050       C  0.83746434  0.77081876  0.45710770    -0.03800
C1051       C  0.82047321  0.76018619  0.47202085    -0.00900
C1052       C  0.82050248  0.73864414  0.47378857     0.04100
C1053       C  0.87349943  0.72722336  0.43870481     0.38700
C1054       C  0.80236845  0.77125122  0.48342174     0.38700
C1055       C  0.80256902  0.72815906  0.48792333     0.37100
C1056       C  0.87287201  0.77024632  0.43245304     0.37100
N1057       N  0.78825278  0.71990706  0.49934589    -0.37700
N1058       N  0.88716349  0.77870671  0.42148368    -0.37700
N1059       N  0.78787651  0.78002669  0.49243117    -0.37100
N1060       N  0.88826631  0.71847211  0.43133758    -0.37100
C1061       C  0.77244408  0.65903536  0.39748885    -0.03800
C1062       C  0.76180171  0.64083795  0.38970599    -0.00900
C1063       C  0.74226473  0.64156730  0.37299932     0.04100
C1064       C  0.73318066  0.66055083  0.36429005    -0.03800
C1065       C  0.74400925  0.67874722  0.37204652    -0.00900
C1066       C  0.76359536  0.67795055  0.38825279     0.04100
C1067       C  0.77108612  0.62135675  0.39835100     0.38700
C1068       C  0.73516303  0.69840176  0.36312630     0.38700
C1069       C  0.77455788  0.69669817  0.39630180     0.37100
C1070       C  0.73118080  0.62276727  0.36649192     0.37100
N1071       N  0.78342712  0.71154230  0.40279934    -0.37700
N1072       N  0.72233597  0.60774445  0.36150138    -0.37700
N1073       N  0.72820717  0.71416145  0.35634078    -0.37100
N1074       N  0.77846525  0.60579946  0.40521159    -0.37100
C1075       C  0.47426935  0.41389241  0.42537802    -0.03800
C1076       C  0.48608218  0.41519072  0.39175207    -0.00900
C1077       C  0.50755360  0.41568082  0.39383741     0.04100
C1078       C  0.51746141  0.41529822  0.42964220    -0.03800
C1079       C  0.50556949  0.41480430  0.46332153    -0.00900
C1080       C  0.48417793  0.41379171  0.46120182     0.04100
C1081       C  0.47620737  0.41564295  0.35480812     0.38700
C1082       C  0.51518135  0.41668029  0.50044541     0.38700
C1083       C  0.47238485  0.41369278  0.49627496     0.37100
C1084       C  0.51937566  0.41621969  0.35890729     0.37100
N1085       N  0.46303324  0.41361434  0.52425809    -0.37700
N1086       N  0.52874505  0.41669254  0.33096608    -0.37700
N1087       N  0.52272979  0.41838746  0.53007659    -0.37100
N1088       N  0.46834432  0.41609972  0.32532385    -0.37100
C1089       C  0.52291661  0.58450884  0.07976657    -0.03800
C1090       C  0.51159146  0.58106678  0.11344549    -0.00900
C1091       C  0.49010302  0.58059953  0.11233363     0.04100
C1092       C  0.47967258  0.58387589  0.07760405    -0.03800
C1093       C  0.49106724  0.58739559  0.04392979    -0.00900
C1094       C  0.51250820  0.58739742  0.04493072     0.04100
C1095       C  0.52200281  0.57826007  0.14949844     0.38700
C1096       C  0.48085491  0.58995702  0.00755820     0.38700
C1097       C  0.52381868  0.58893808  0.00943301     0.37100
C1098       C  0.47880385  0.57705481  0.14724618     0.37100
N1099       N  0.53283329  0.58993999  0.48112030    -0.37700
N1100       N  0.46989752  0.57414372  0.17519586    -0.37700
N1101       N  0.47279075  0.59200970  0.47850580    -0.37100
N1102       N  0.53029615  0.57598744  0.17825373    -0.37100
C1103       C  0.61833263  0.61445202  0.48158681    -0.03800
C1104       C  0.62519400  0.60310934  0.44978566    -0.00900
C1105       C  0.63520458  0.61291966  0.41936131     0.04100
C1106       C  0.63838047  0.63428835  0.42020240    -0.03800
C1107       C  0.63117031  0.64565421  0.45186832    -0.00900
C1108       C  0.62129049  0.63574807  0.48245176     0.04100
C1109       C  0.62145904  0.58130041  0.44774910     0.38700
C1110       C  0.63458083  0.66746526  0.45402648     0.38700
C1111       C  0.61506594  0.64737403  0.01573229     0.37100
C1112       C  0.64173432  0.60087061  0.38679379     0.37100
N1113       N  0.61015478  0.65652927  0.04243214    -0.37700
N1114       N  0.64697368  0.59117730  0.36098983    -0.37700
N1115       N  0.63724492  0.68486859  0.45595082    -0.37100
N1116       N  0.61846274  0.56393692  0.44622302    -0.37100
C1117       C  0.64202406  0.62660243  0.23282930    -0.03800
C1118       C  0.62288183  0.61736399  0.23983165    -0.00900
C1119       C  0.61258810  0.60680764  0.21043844     0.04100
C1120       C  0.62154847  0.60475048  0.17399113    -0.03800
C1121       C  0.64124787  0.61281284  0.16770944    -0.00900
C1122       C  0.65128305  0.62393050  0.19671250     0.04100
C1123       C  0.61398475  0.61803058  0.27773932     0.38700
C1124       C  0.65098973  0.61040977  0.13081086     0.38700
C1125       C  0.67074532  0.63340809  0.18852334     0.37100
C1126       C  0.59299642  0.59750361  0.21823079     0.37100
N1127       N  0.68623967  0.64100251  0.18189139    -0.37700
N1128       N  0.57741176  0.59007678  0.22477436    -0.37700
N1129       N  0.65883249  0.60840084  0.10148265    -0.37100
N1130       N  0.60695856  0.61844646  0.30801040    -0.37100
C1131       C  0.58913256  0.51975858  0.02564322    -0.03800
C1132       C  0.57050828  0.50924245  0.02254337    -0.00900
C1133       C  0.56969200  0.49008517  0.00429214     0.04100
C1134       C  0.58757808  0.48120077  0.48904168    -0.03800
C1135       C  0.60622840  0.49187471  0.49200995    -0.00900
C1136       C  0.60697247  0.51108765  0.51029044     0.04100
C1137       C  0.55222094  0.51798220  0.03901871     0.38700
C1138       C  0.62483841  0.48275599  0.47785005     0.38700
C1139       C  0.62610938  0.52197612  0.51335383     0.37100
C1140       C  0.55027807  0.47970456  0.00068003     0.37100
N1141       N  0.64137691  0.53065272  0.51589608    -0.37700
N1142       N  0.53483306  0.47137477  0.99781739    -0.37700
N1143       N  0.63972927  0.47546900  0.46674121    -0.37100
N1144       N  0.53770544  0.52492868  0.05242516    -0.37100
C1145       C  0.97351329  0.41090735  0.32373520    -0.03800
C1146       C  0.98462280  0.40340652  0.29199450    -0.00900
C1147       C  0.00607423  0.40341034  0.29228304     0.04100
C1148       C  0.01689202  0.41106529  0.32413641    -0.03800
C1149       C  0.00585447  0.41858232  0.35585116    -0.00900
C1150       C  0.98434474  0.41844754  0.35570795     0.04100
C1151       C  0.97417380  0.39674249  0.25772852     0.38700
C1152       C  0.01656789  0.42628702  0.38901820     0.38700
C1153       C  0.97348145  0.42594382  0.38894768     0.37100
C1154       C  0.01689352  0.39657071  0.25842359     0.37100
N1155       N  0.96491216  0.43200119  0.41546616    -0.37700
N1156       N  0.02537782  0.39116544  0.23132385    -0.37700
N1157       N  0.02510787  0.43252008  0.41544310    -0.37100
N1158       N  0.96601569  0.39147376  0.23018395    -0.37100
C1159       C  0.97976599  0.58042612  0.18139827    -0.03800
C1160       C  0.99161871  0.58268649  0.21480760    -0.00900
C1161       C  0.01301345  0.58178618  0.21284661     0.04100
C1162       C  0.02294319  0.57911644  0.17738538    -0.03800
C1163       C  0.01118042  0.57667555  0.14402390    -0.00900
C1164       C  0.98970061  0.57716390  0.14601740     0.04100
C1165       C  0.98188866  0.58498599  0.25177507     0.38700
C1166       C  0.02119494  0.57422170  0.10741861     0.38700
C1167       C  0.97792041  0.57475359  0.11136762     0.37100
C1168       C  0.02474983  0.58241195  0.24786900     0.37100
N1169       N  0.96857240  0.57273618  0.08367644    -0.37700
N1170       N  0.03406776  0.58270098  0.27582824    -0.37700
N1171       N  0.02930418  0.57230271  0.07833028    -0.37100
N1172       N  0.97423314  0.58682236  0.28131430    -0.37100
C1173       C  0.88533101  0.61156792  0.28876232    -0.03800
C1174       C  0.89635155  0.62488526  0.31301709    -0.00900
C1175       C  0.88677483  0.63397314  0.34479983     0.04100
C1176       C  0.86596631  0.63033475  0.35222032    -0.03800
C1177       C  0.85498383  0.61686806  0.32833574    -0.00900
C1178       C  0.86461469  0.60745153  0.29702719     0.04100
C1179       C  0.91748598  0.62968229  0.30519656     0.38700
C1180       C  0.83358891  0.61281360  0.33539838     0.38700
C1181       C  0.85308019  0.59300284  0.27418530     0.37100
C1182       C  0.89870928  0.64640558  0.37079432     0.37100
N1183       N  0.84375801  0.58153890  0.25619082    -0.37700
N1184       N  0.90831660  0.65617178  0.39155092    -0.37700
N1185       N  0.81655905  0.60945036  0.34099794    -0.37100
N1186       N  0.93436321  0.63360543  0.29923785    -0.37100
C1187       C  0.86204102  0.62821792  0.03867417    -0.03800
C1188       C  0.85120521  0.62145703  0.07125018    -0.00900
C1189       C  0.86128488  0.61057458  0.10039172     0.04100
C1190       C  0.88229333  0.60633857  0.09740689    -0.03800
C1191       C  0.89306860  0.61276899  0.06477224    -0.00900
C1192       C  0.88305667  0.62355602  0.03555417     0.04100
C1193       C  0.82986418  0.62644339  0.07589903     0.38700
C1194       C  0.91448850  0.60787380  0.06075242     0.38700
C1195       C  0.89453352  0.62936999  0.50188819     0.37100
C1196       C  0.85020222  0.60469465  0.13446929     0.37100
N1197       N  0.90380475  0.63399877  0.47519973    -0.37700
N1198       N  0.84138870  0.60008481  0.16171101    -0.37700
N1199       N  0.93155587  0.60398672  0.05746019    -0.37100
N1200       N  0.81284816  0.63042970  0.07972406    -0.37100
C1201       C  0.90592064  0.51626350  0.23400621    -0.03800
C1202       C  0.92188153  0.50249108  0.22658729    -0.00900
C1203       C  0.92149322  0.48279574  0.24252425     0.04100
C1204       C  0.90521271  0.47675763  0.26652073    -0.03800
C1205       C  0.88943126  0.49076033  0.27452894    -0.00900
C1206       C  0.88971406  0.51036638  0.25801983     0.04100
C1207       C  0.93939529  0.50905211  0.20451335     0.38700
C1208       C  0.87274801  0.48502916  0.29939709     0.38700
C1209       C  0.87311702  0.52440071  0.26518517     0.37100
C1210       C  0.93853517  0.46919482  0.23587233     0.37100
N1211       N  0.85986646  0.53560088  0.27072884    -0.37700
N1212       N  0.95213664  0.45836488  0.23069976    -0.37700
N1213       N  0.85948062  0.48057090  0.31943583    -0.37100
N1214       N  0.95341560  0.51441201  0.18724118    -0.37100
C1215       C  0.65952343  0.22842225  0.20147617    -0.03800
C1216       C  0.65726737  0.23910056  0.16665315    -0.00900
C1217       C  0.65649594  0.26055057  0.16640111     0.04100
C1218       C  0.65810254  0.27165192  0.20089838    -0.03800
C1219       C  0.65962683  0.26102492  0.23575817    -0.00900
C1220       C  0.66014460  0.23951207  0.23609091     0.04100
C1221       C  0.65659138  0.22820105  0.13056203     0.38700
C1222       C  0.66013613  0.27223070  0.27145348     0.38700
C1223       C  0.66048755  0.22885259  0.27225892     0.37100
C1224       C  0.65503145  0.27113639  0.13015102     0.37100
N1225       N  0.66056650  0.22046871  0.30124896    -0.37700
N1226       N  0.65382085  0.27953758  0.10126350    -0.37700
N1227       N  0.66052343  0.28129031  0.29979220    -0.37100
N1228       N  0.65598710  0.21963325  0.10169958    -0.37100
C1229       C  0.63559300  0.36861667  0.28717026    -0.03800
C1230       C  0.61644663  0.36163446  0.30030640    -0.00900
C1231       C  0.60574466  0.37251634  0.32869365     0.04100
C1232       C  0.61404157  0.39050206  0.34475956    -0.03800
C1233       C  0.63307884  0.39764065  0.33131915    -0.00900
C1234       C  0.64389096  0.38663023  0.30305861     0.04100
C1235       C  0.60786517  0.34281897  0.28549683     0.38700
C1236       C  0.64181549  0.41616448  0.34691050     0.38700
C1237       C  0.66340745  0.39416147  0.28981415     0.37100
C1238       C  0.58578257  0.36540105  0.34045155     0.37100
N1239       N  0.67901377  0.40009934  0.27932397    -0.37700
N1240       N  0.56986560  0.35973925  0.34976571    -0.37700
N1241       N  0.64874730  0.43101221  0.35916139    -0.37100
N1242       N  0.60097729  0.32781961  0.27381443    -0.37100
C1243       C  0.63524917  0.36706293  0.09477370    -0.03800
C1244       C  0.64587628  0.37227874  0.06122838    -0.00900
C1245       C  0.63557757  0.38183047  0.03090347     0.04100
C1246       C  0.61465951  0.38665413  0.03432254    -0.03800
C1247       C  0.60409405  0.38135750  0.06809958    -0.00900
C1248       C  0.61435320  0.37152430  0.09807303     0.04100
C1249       C  0.66728999  0.36731597  0.05746123     0.38700
C1250       C  0.58285446  0.38673145  0.07297853     0.38700
C1251       C  0.60358306  0.36676110  0.13315120     0.37100
C1252       C  0.64642216  0.38599392  0.49568565     0.37100
N1253       N  0.59513924  0.36296616  0.16123151    -0.37700
N1254       N  0.65501077  0.38928276  0.46753328    -0.37700
N1255       N  0.56592898  0.39100079  0.07710999    -0.37100
N1256       N  0.68436253  0.36338968  0.05437153    -0.37100
C1257       C  0.83486170  0.26817001  0.04970169    -0.03800
C1258       C  0.83871190  0.25773283  0.01510604    -0.00900
C1259       C  0.83939341  0.23620545  0.01447974     0.04100
C1260       C  0.83605777  0.22509490  0.04832322    -0.03800
C1261       C  0.83205243  0.23552457  0.08276321    -0.00900
C1262       C  0.83171405  0.25692206  0.08357915     0.04100
C1263       C  0.84262215  0.26908274  0.48043997     0.38700
C1264       C  0.82706120  0.22420821  0.11712480     0.38700
C1265       C  0.82726371  0.26727377  0.11928877     0.37100
C1266       C  0.84400532  0.22549068  0.47930916     0.37100
N1267       N  0.82378576  0.27548446  0.14779460    -0.37700
N1268       N  0.84773849  0.21686750  0.45134696    -0.37700
N1269       N  0.82292829  0.21513835  0.14432302    -0.37100
N1270       N  0.84581718  0.27805360  0.45269436    -0.37100
C1271       C  0.87382252  0.38919504  0.40946757    -0.03800
C1272       C  0.86110584  0.37233345  0.40141505    -0.00900
C1273       C  0.85093675  0.36203742  0.43112041     0.04100
C1274       C  0.85356937  0.36831363  0.46932370    -0.03800
C1275       C  0.86619962  0.38529964  0.47742379    -0.00900
C1276       C  0.87597320  0.39592295  0.44750989     0.04100
C1277       C  0.85844023  0.36551301  0.36234540     0.38700
C1278       C  0.86933250  0.39180786  0.01657718     0.38700
C1279       C  0.88890071  0.41326412  0.45607667     0.37100
C1280       C  0.83874348  0.34417866  0.42243760     0.37100
N1281       N  0.89918322  0.42712113  0.46289448    -0.37700
N1282       N  0.82910734  0.32987448  0.41555235    -0.37700
N1283       N  0.87199158  0.39692790  0.04778422    -0.37100
N1284       N  0.85641936  0.36003235  0.33119783    -0.37100
C1285       C  0.85722695  0.36339217  0.15758938    -0.03800
C1286       C  0.84570549  0.37107958  0.18840953    -0.00900
C1287       C  0.85547018  0.38075988  0.21926423     0.04100
C1288       C  0.87685299  0.38341946  0.21910888    -0.03800
C1289       C  0.88829263  0.37607929  0.18767813    -0.00900
C1290       C  0.87855772  0.36583011  0.15740316     0.04100
C1291       C  0.82374703  0.36862820  0.18895978     0.38700
C1292       C  0.90998421  0.37990486  0.18518834     0.38700
C1293       C  0.89051647  0.35858367  0.12525671     0.37100
C1294       C  0.84334951  0.38742037  0.25156819     0.37100
N1295       N  0.90013411  0.35283913  0.09975830    -0.37700
N1296       N  0.83354765  0.39266337  0.27718850    -0.37700
N1297       N  0.92725946  0.38298874  0.18272563    -0.37100
N1298       N  0.80624283  0.36679600  0.18935583    -0.37100
C1299       C  0.76514727  0.33555549  0.11045285    -0.03800
C1300       C  0.75564611  0.35446587  0.11805973    -0.00900
C1301       C  0.73644342  0.35512705  0.13613816     0.04100
C1302       C  0.72655765  0.33690448  0.14689099    -0.03800
C1303       C  0.73616760  0.31799883  0.13985566    -0.00900
C1304       C  0.75531030  0.31731899  0.12166823     0.04100
C1305       C  0.76587663  0.37337056  0.10852563     0.38700
C1306       C  0.72657586  0.29916490  0.15216951     0.38700
C1307       C  0.76460933  0.29771086  0.11372394     0.37100
C1308       C  0.72658999  0.37459804  0.14257976     0.37100
N1309       N  0.77199433  0.28206497  0.10742912    -0.37700
N1310       N  0.71868682  0.39010191  0.14773848    -0.37700
N1311       N  0.71891338  0.28419154  0.16206968    -0.37100
N1312       N  0.77399229  0.38850729  0.10110386    -0.37100
O1313       O  0.84203922  0.30069126  0.57746062    -0.56300
C1314       C  0.84691660  0.35308589  0.62540784     0.76400
O1315       O  0.82556305  0.35099541  0.50038920    -0.57400
C1316       C  0.83343782  0.29071973  0.55118282     0.76300
C1317       C  0.78581649  0.33482115  0.59298403     0.78700
Cd1318     Cd  0.82693451  0.33353122  0.56337691     1.37500
O1319       O  0.85356278  0.33657262  0.61148561    -0.56300
O1320       O  0.79940015  0.32327361  0.60625070    -0.55100
C1321       C  0.84407333  0.35646383  0.00081195     0.78700
O1322       O  0.79094345  0.34573993  0.56473797    -0.57400
O1323       O  0.83100516  0.36040258  0.61055224    -0.55900
O1324       O  0.82272339  0.30083390  0.52799131    -0.55900
O1325       O  0.85433008  0.35106297  0.52940676    -0.55100
O1326       O  0.63921323  0.34014157  0.63979726    -0.56300
C1327       C  0.65915990  0.29426933  0.69995595     0.76400
O1328       O  0.70027902  0.34946823  0.68942176    -0.57400
C1329       C  0.64575351  0.35681553  0.62655500     0.76300
C1330       C  0.64603790  0.35779783  0.75511371     0.78700
Cd1331     Cd  0.66439417  0.33728387  0.69010054     1.37500
O1332       O  0.64820943  0.30454194  0.67752570    -0.56300
O1333       O  0.63604243  0.35099588  0.72715967    -0.55100
C1334       C  0.70561941  0.33738467  0.66290044     0.78700
O1335       O  0.66510906  0.35501717  0.75376822    -0.57400
O1336       O  0.67163228  0.30420661  0.72027462    -0.55900
O1337       O  0.66126959  0.36449545  0.64237312    -0.55900
O1338       O  0.69205625  0.32562687  0.64997007    -0.55100
O1339       O  0.91415679  0.59681878  0.75590416    -0.56300
C1340       C  0.95711255  0.58061703  0.68406630     0.76400
O1341       O  0.90931170  0.54143658  0.68445035    -0.57400
C1342       C  0.89545715  0.60138237  0.75574017     0.76300
C1343       C  0.89324038  0.59624682  0.62927387     0.78700
Cd1344     Cd  0.91351277  0.57870338  0.69433037     1.37500
O1345       O  0.94775206  0.59266326  0.70619661    -0.56300
O1346       O  0.90939823  0.60375226  0.64295768    -0.55100
C1347       C  0.90726927  0.53740576  0.71954749     0.78700
O1348       O  0.88679688  0.58001126  0.64458412    -0.57400
O1349       O  0.94617345  0.56833689  0.66523955    -0.55900
O1350       O  0.88564512  0.59631461  0.72620898    -0.55900
O1351       O  0.90723811  0.55234426  0.74221461    -0.55100
O1352       O  0.90488834  0.38931138  0.76206025    -0.56300
C1353       C  0.95076751  0.41169282  0.82235307     0.76400
O1354       O  0.89986663  0.45220286  0.81707511    -0.57400
C1355       C  0.88714937  0.39405723  0.75134301     0.76300
C1356       C  0.88569672  0.39873734  0.87810549     0.78700
Cd1357     Cd  0.90712962  0.41509158  0.81272124     1.37500
O1358       O  0.94047216  0.39889630  0.80352404    -0.56300
O1359       O  0.89634224  0.38796865  0.85592429    -0.55100
C1360       C  0.90492125  0.45582851  0.78281786     0.78700
O1361       O  0.88548119  0.41769628  0.87149619    -0.57400
O1362       O  0.94063881  0.42551301  0.83886649    -0.55900
O1363       O  0.87867469  0.40842965  0.76946203    -0.55900
O1364       O  0.91019431  0.44063989  0.76294146    -0.55100
O1365       O  0.55594425  0.59676474  0.56080489    -0.56300
C1366       C  0.60843158  0.60382362  0.51400077     0.76400
O1367       O  0.61799182  0.58282798  0.61891128    -0.57400
C1368       C  0.54556985  0.58420865  0.58019027     0.76300
C1369       C  0.58954590  0.54039524  0.54275010     0.78700
Cd1370     Cd  0.58897442  0.58111618  0.57362074     1.37500
O1371       O  0.59245956  0.61048371  0.52989029    -0.56300
O1372       O  0.58266117  0.55544393  0.52457958    -0.55100
C1373       C  0.60997888  0.59540291  0.64177392     0.78700
O1374       O  0.59639327  0.54386661  0.57594923    -0.57400
O1375       O  0.61550231  0.58732211  0.52675420    -0.55900
O1376       O  0.55546003  0.57097270  0.59874978    -0.55900
O1377       O  0.59178710  0.60029493  0.63474840    -0.55100
O1378       O  0.58580789  0.39361420  0.99412505    -0.56300
C1379       C  0.54010761  0.41587260  0.93236911     0.76400
O1380       O  0.59575172  0.45536820  0.94171443    -0.57400
C1381       C  0.60402295  0.39759972  0.00309135     0.76300
C1382       C  0.60337380  0.40085603  0.87717176     0.78700
Cd1383     Cd  0.58362052  0.41910564  0.94311640     1.37500
O1384       O  0.54952858  0.40583566  0.95748008    -0.56300
O1385       O  0.59451575  0.39063909  0.90278226    -0.55100
C1386       C  0.58677063  0.46028202  0.97242901     0.85100
O1387       O  0.60278059  0.42005426  0.88117576    -0.57400
O1388       O  0.55097930  0.42672317  0.91054343    -0.55900
O1389       O  0.61270081  0.41153483  0.98419451    -0.55900
O1390       O  0.57683844  0.44632153  0.98876163    -0.55100
O1391       O  0.84572993  0.69566042  0.92967498    -0.56300
C1392       C  0.85554461  0.64080931  0.88435591     0.76400
O1393       O  0.83321012  0.63723266  0.49885201    -0.57400
C1394       C  0.83661337  0.70472420  0.95657020     0.76300
C1395       C  0.79320199  0.65863252  0.91372871     0.78700
Cd1396     Cd  0.83375815  0.66119106  0.94387140     1.37500
O1397       O  0.85935576  0.65916746  0.89298520    -0.56300
O1398       O  0.80802982  0.66560567  0.89495583    -0.55100
C1399       C  0.85166489  0.64006545  0.50787928     0.78700
O1400       O  0.79692685  0.65218875  0.94706662    -0.57400
O1401       O  0.84207788  0.63194960  0.90405290    -0.55900
O1402       O  0.82644873  0.69345003  0.97888261    -0.55900
O1403       O  0.86106221  0.65339944  0.98873691    -0.55100
O1404       O  0.64486694  0.66227559  0.87697731    -0.56300
C1405       C  0.66544433  0.70526725  0.80301475     0.76400
O1406       O  0.70573648  0.65015291  0.82253192    -0.57400
C1407       C  0.64931931  0.64451491  0.88817914     0.76300
C1408       C  0.65198034  0.63926209  0.76305090     0.78700
Cd1409     Cd  0.66999577  0.66294585  0.82423653     1.37500
O1410       O  0.65756378  0.69803534  0.83302514    -0.56300
O1411       O  0.64164264  0.65032892  0.78533116    -0.55100
C1412       C  0.71198768  0.66147731  0.84939628     0.78700
O1413       O  0.67105752  0.63959769  0.76810148    -0.57400
O1414       O  0.67475756  0.69273407  0.78178690    -0.55900
O1415       O  0.66355698  0.63575441  0.87033450    -0.55900
O1416       O  0.69907919  0.67356268  0.86358089    -0.55100
O1417       O  0.84581229  0.19263471  0.57274796    -0.56300
C1418       C  0.84987545  0.14045783  0.62175234     0.76400
O1419       O  0.79414931  0.14759943  0.56205630    -0.57400
C1420       C  0.83575531  0.20258024  0.54839492     0.76300
C1421       C  0.84816860  0.13917159  0.49574968     0.78700
Cd1422     Cd  0.83005643  0.15993138  0.55969574     1.37500
O1423       O  0.85564897  0.15767790  0.60953788    -0.56300
O1424       O  0.85690581  0.14160540  0.52741271    -0.55100
C1425       C  0.78934916  0.15926782  0.58956562     0.78700
O1426       O  0.83021280  0.14606199  0.49327041    -0.57400
O1427       O  0.83478736  0.13232274  0.60518019    -0.55900
O1428       O  0.82432847  0.19247373  0.52633374    -0.55900
O1429       O  0.80313877  0.17087107  0.60203112    -0.55100
O1430       O  0.65230431  0.19481629  0.67782501    -0.56300
C1431       C  0.65018722  0.14272663  0.62979187     0.76400
O1432       O  0.70503099  0.14991634  0.69145648    -0.57400
C1433       C  0.66200917  0.20586224  0.70106259     0.76300
C1434       C  0.65229033  0.14193612  0.75753070     0.78700
Cd1435     Cd  0.66927974  0.16279365  0.69226486     1.37500
O1436       O  0.64406113  0.15982504  0.64181310    -0.56300
O1437       O  0.64180181  0.14760511  0.72939323    -0.55100
C1438       C  0.71034533  0.16093687  0.66349634     0.78700
O1439       O  0.67112668  0.14598089  0.75617169    -0.57400
O1440       O  0.66509747  0.13478568  0.64694076    -0.55900
O1441       O  0.67448909  0.19674140  0.72257469    -0.55900
O1442       O  0.69699190  0.17276959  0.65028859    -0.55100
O1443       O  0.94547211  0.09316172  0.79488021    -0.56300
C1444       C  0.89087281  0.10068520  0.74753815     0.76400
O1445       O  0.90058754  0.04445336  0.81128498    -0.57400
C1446       C  0.95441977  0.08368372  0.82136874     0.76300
C1447       C  0.89122185  0.09775256  0.87358526     0.78700
Cd1448     Cd  0.91145235  0.08058140  0.80875065     1.37500
O1449       O  0.90740111  0.10741797  0.76105517    -0.56300
O1450       O  0.90321723  0.10785286  0.85274758    -0.55100
C1451       C  0.91092715  0.03944920  0.78216961     0.78700
O1452       O  0.88890374  0.07909568  0.86524966    -0.57400
O1453       O  0.88385407  0.08471169  0.76275607    -0.55900
O1454       O  0.94324755  0.07362274  0.84398310    -0.55900
O1455       O  0.92105714  0.05336041  0.76606601    -0.55100
O1456       O  0.94942524  0.90079744  0.70200932    -0.56300
C1457       C  0.89746954  0.89774011  0.75182138     0.76400
O1458       O  0.90340349  0.95251568  0.68998892    -0.57400
C1459       C  0.96004774  0.91183985  0.68020383     0.76300
C1460       C  0.89544681  0.90084183  0.62349364     0.78700
Cd1461     Cd  0.91700101  0.91731271  0.68881296     1.37500
O1462       O  0.91405585  0.89120103  0.73812359    -0.56300
O1463       O  0.89862564  0.89098916  0.65374247    -0.55100
C1464       C  0.91464591  0.95829528  0.71732370     0.78700
O1465       O  0.90281316  0.91868746  0.62234605    -0.57400
O1466       O  0.88999530  0.91346125  0.73643402    -0.55900
O1467       O  0.95052185  0.92439596  0.65955457    -0.55900
O1468       O  0.92687520  0.94527358  0.73041110    -0.55100
O1469       O  0.55665882  0.09123732  0.95727704    -0.56300
C1470       C  0.61106959  0.10147122  0.00352544     0.76400
O1471       O  0.60014791  0.04267965  0.94290613    -0.57400
C1472       C  0.54811532  0.08165970  0.93037375     0.76300
C1473       C  0.61146043  0.09852424  0.88064860     0.78700
Cd1474     Cd  0.59115727  0.07934962  0.94445942     1.37500
O1475       O  0.59309909  0.10567133  0.99320362    -0.56300
O1476       O  0.60151658  0.10820303  0.90558440    -0.55100
C1477       C  0.59529622  0.03901979  0.97727451     0.78700
O1478       O  0.61194329  0.07931466  0.88468330    -0.57400
O1479       O  0.61986079  0.08717234  0.98570339    -0.55900
O1480       O  0.55959100  0.07111887  0.90912275    -0.55900
O1481       O  0.58852686  0.05414399  0.99558742    -0.55100
O1482       O  0.55496309  0.90236218  0.55228577    -0.56300
C1483       C  0.60877692  0.89397690  0.50442073     0.76400
O1484       O  0.59998157  0.95136229  0.57312606    -0.57400
C1485       C  0.54606014  0.91356268  0.57641321     0.76300
C1486       C  0.60994063  0.89637657  0.62832247     0.78700
Cd1487     Cd  0.58937184  0.91535775  0.56518406     1.37500
O1488       O  0.59145738  0.88876401  0.51678976    -0.56300
O1489       O  0.59989892  0.88642308  0.60395610    -0.55100
C1490       C  0.59482446  0.95665278  0.53975395     0.78700
O1491       O  0.61008543  0.91553578  0.62419542    -0.57400
O1492       O  0.61686807  0.90938469  0.52003867    -0.55900
O1493       O  0.55724418  0.92507319  0.59635728    -0.55900
O1494       O  0.58740144  0.94288109  0.51864296    -0.55100
O1495       O  0.84430552  0.80173204  0.92227565    -0.56300
C1496       C  0.85572183  0.85686931  0.87638026     0.76400
O1497       O  0.79784500  0.84713455  0.94444501    -0.57400
C1498       C  0.83676776  0.79339274  0.95154469     0.76300
C1499       C  0.85242981  0.85897916  0.50120632     0.78700
Cd1500     Cd  0.83422433  0.83700769  0.93779747     1.37500
O1501       O  0.86097839  0.83948858  0.88848806    -0.56300
O1502       O  0.86273503  0.84865928  0.97765940    -0.55100
C1503       C  0.79282814  0.84105630  0.91142026     0.78700
O1504       O  0.83332558  0.85871473  0.49655733    -0.57400
O1505       O  0.84054742  0.86492118  0.89270365    -0.55900
O1506       O  0.82843250  0.80529477  0.97527678    -0.55900
O1507       O  0.80675313  0.83313288  0.89149600    -0.55100
O1508       O  0.65810292  0.80140767  0.82805281    -0.56300
C1509       C  0.64960781  0.85356089  0.87914968     0.76400
O1510       O  0.70497514  0.85206936  0.82090971    -0.57400
C1511       C  0.66682737  0.79309447  0.79987679     0.76300
C1512       C  0.65263191  0.85587672  0.75196260     0.78700
Cd1513     Cd  0.67078034  0.83584075  0.81646874     1.37500
O1514       O  0.64490780  0.83606757  0.86670654    -0.56300
O1515       O  0.64243833  0.84850524  0.77918147    -0.55100
C1516       C  0.71156692  0.83996568  0.84615903     0.78700
O1517       O  0.67179201  0.85420530  0.75437415    -0.57400
O1518       O  0.66385618  0.86281124  0.86220979    -0.55900
O1519       O  0.67720571  0.80473959  0.77862723    -0.55900
O1520       O  0.69960499  0.82580073  0.85577560    -0.55100
O1521       O  0.05008758  0.39866801  0.80635509    -0.56300
C1522       C  0.10203629  0.39526865  0.75014009     0.76400
O1523       O  0.09763111  0.45109630  0.81571978    -0.57400
C1524       C  0.03959430  0.41211587  0.82307709     0.76300
C1525       C  0.10244420  0.39662014  0.87769908     0.78700
Cd1526     Cd  0.08309300  0.41584591  0.81272287     1.37500
O1527       O  0.08304196  0.39826736  0.75123091    -0.56300
O1528       O  0.09499543  0.38691148  0.84986543    -0.55100
C1529       C  0.09122299  0.45616911  0.78297204     0.78700
O1530       O  0.10050234  0.41584932  0.87640440    -0.57400
O1531       O  0.11199808  0.40140696  0.77877294    -0.55900
O1532       O  0.04945295  0.42680732  0.83748802    -0.55900
O1533       O  0.08103420  0.44285081  0.76537216    -0.55100
O1534       O  0.05605700  0.59134965  0.69475647    -0.56300
C1535       C  0.10963498  0.59970717  0.73890325     0.76400
O1536       O  0.10156081  0.54065049  0.68006372    -0.57400
C1537       C  0.04557741  0.57874253  0.67587415     0.76300
C1538       C  0.10760967  0.59307883  0.61213641     0.78700
Cd1539     Cd  0.08937586  0.57659820  0.68080359     1.37500
O1540       O  0.09166739  0.60358712  0.72850298    -0.56300
O1541       O  0.09726217  0.60351381  0.63535568    -0.55100
C1542       C  0.09459607  0.53641566  0.71286949     0.78700
O1543       O  0.10914401  0.57428005  0.61971219    -0.57400
O1544       O  0.11847129  0.58524700  0.72169834    -0.55900
O1545       O  0.05540173  0.56558023  0.65688288    -0.55900
O1546       O  0.08532370  0.55070267  0.72965505    -0.55100
O1547       O  0.14884975  0.29948294  0.58133875    -0.56300
C1548       C  0.14205241  0.35483128  0.62301709     0.76400
O1549       O  0.19908132  0.34339360  0.56055590    -0.57400
C1550       C  0.15930247  0.28919095  0.55795335     0.76300
C1551       C  0.14512163  0.35211141  0.49763712     0.78700
Cd1552     Cd  0.16273022  0.33282328  0.56411250     1.37500
O1553       O  0.13787307  0.33644817  0.61546984    -0.56300
O1554       O  0.13506509  0.34082591  0.51994702    -0.55100
C1555       C  0.20381801  0.33531712  0.59213384     0.78700
O1556       O  0.16396612  0.35364973  0.50462404    -0.57400
O1557       O  0.15575507  0.36305139  0.60290723    -0.55900
O1558       O  0.17035948  0.29921139  0.53503728    -0.55900
O1559       O  0.18969734  0.32645871  0.61004412    -0.55100
O1560       O  0.34131243  0.30218857  0.66256213    -0.56300
C1561       C  0.34461442  0.35690756  0.61367640     0.76400
O1562       O  0.29195356  0.34941559  0.67919847    -0.57400
C1563       C  0.33173780  0.29253522  0.68815230     0.76300
C1564       C  0.34581833  0.35691756  0.74210325     0.78700
Cd1565     Cd  0.32733951  0.33598788  0.67787387     1.37500
O1566       O  0.35149935  0.34000635  0.62521659    -0.56300
O1567       O  0.35609322  0.34960258  0.71486781    -0.55100
C1568       C  0.28552147  0.33707632  0.65405538     0.78700
O1569       O  0.32679414  0.35386973  0.74080644    -0.57400
O1570       O  0.32973173  0.36416424  0.63204921    -0.55900
O1571       O  0.32121814  0.30320817  0.71091949    -0.55900
O1572       O  0.29824601  0.32451097  0.64084336    -0.55100
O1573       O  0.15556232  0.69459100  0.91908504    -0.56300
C1574       C  0.14892331  0.64177923  0.86386259     0.76400
O1575       O  0.20373203  0.64688463  0.92936098    -0.57400
C1576       C  0.16355595  0.70208318  0.94877626     0.76300
C1577       C  0.14862671  0.63624236  0.48864647     0.78700
Cd1578     Cd  0.16796759  0.65963280  0.92863605     1.37500
O1579       O  0.14257042  0.65841558  0.87780605    -0.56300
O1580       O  0.13893401  0.64412474  0.96135571    -0.55100
C1581       C  0.20963341  0.65831206  0.90236579     0.78700
O1582       O  0.16771046  0.63907642  0.48841044    -0.57400
O1583       O  0.16416113  0.63364916  0.87961862    -0.55900
O1584       O  0.17269369  0.68964618  0.97028466    -0.55900
O1585       O  0.19645855  0.67014985  0.88850227    -0.55100
O1586       O  0.35682477  0.65786456  0.86984104    -0.56300
C1587       C  0.33825679  0.70347722  0.80574327     0.76400
O1588       O  0.33323171  0.64129442  0.75318330    -0.57400
C1589       C  0.35333868  0.63931121  0.87702602     0.76300
C1590       C  0.29199661  0.65821819  0.84116462     0.78700
Cd1591     Cd  0.33379833  0.66016601  0.81515983     1.37500
O1592       O  0.34904989  0.69339256  0.82876526    -0.56300
O1593       O  0.30531961  0.66935868  0.85663747    -0.55100
C1594       C  0.35239276  0.64093787  0.74919936     0.78700
O1595       O  0.29786127  0.64752764  0.81305948    -0.57400
O1596       O  0.32625694  0.69330982  0.78481309    -0.55900
O1597       O  0.34081499  0.63041935  0.85525759    -0.55900
O1598       O  0.36248425  0.65013964  0.77457581    -0.55100
O1599       O  0.40274432  0.39038270  0.97735209    -0.56300
C1600       C  0.45161060  0.41366328  0.92377516     0.76400
O1601       O  0.39040013  0.41926006  0.86675156    -0.57400
C1602       C  0.38588260  0.39730476  0.98906912     0.76300
C1603       C  0.40674137  0.45725280  0.96218190     0.78700
Cd1604     Cd  0.40805717  0.41708010  0.93002272     1.37500
O1605       O  0.44121733  0.40256019  0.94589713    -0.56300
O1606       O  0.41613884  0.44259181  0.97725930    -0.55100
C1607       C  0.38738640  0.40020289  0.86426387     0.78700
O1608       O  0.39725892  0.45350612  0.93141784    -0.57400
O1609       O  0.44167585  0.42513806  0.90159951    -0.55900
O1610       O  0.37932875  0.41329639  0.97323671    -0.55900
O1611       O  0.39473608  0.38942986  0.89063325    -0.55100
O1612       O  0.44678193  0.59429208  0.55455572    -0.56300
C1613       C  0.39295490  0.59702827  0.50250375     0.76400
O1614       O  0.40034714  0.54169976  0.56477784    -0.57400
C1615       C  0.45703439  0.58253530  0.57561407     0.76300
C1616       C  0.39468108  0.59658647  0.62840904     0.78700
Cd1617     Cd  0.41386338  0.57727614  0.56383148     1.37500
O1618       O  0.41213055  0.59579201  0.50401285    -0.56300
O1619       O  0.40291211  0.60636323  0.60147280    -0.55100
C1620       C  0.41046218  0.53629085  0.53563434     0.78700
O1621       O  0.39583392  0.57730168  0.62640904    -0.57400
O1622       O  0.38335255  0.58854691  0.52941388    -0.55900
O1623       O  0.44705403  0.56909113  0.59355473    -0.55900
O1624       O  0.42188715  0.54956012  0.52085873    -0.55100
O1625       O  0.14675434  0.83420481  0.89414829    -0.56300
C1626       C  0.16670374  0.79030876  0.95664920     0.76400
O1627       O  0.20674394  0.85015317  0.94019257    -0.57400
C1628       C  0.15212739  0.85143023  0.88139797     0.76300
C1629       C  0.15387170  0.85477287  0.50781175     0.78700
Cd1630     Cd  0.17254407  0.83338427  0.94465355     1.37500
O1631       O  0.15920619  0.79968960  0.92854012    -0.56300
O1632       O  0.14504644  0.85127676  0.97655485    -0.55100
C1633       C  0.21366600  0.83742876  0.91623898     0.78700
O1634       O  0.17194646  0.84820589  0.51053156    -0.57400
O1635       O  0.17638380  0.80110403  0.98053931    -0.55900
O1636       O  0.16690767  0.86008031  0.89789082    -0.55900
O1637       O  0.20218144  0.82255680  0.90860708    -0.55100
O1638       O  0.35711953  0.83533374  0.86600847    -0.56300
C1639       C  0.33713610  0.79211300  0.80466947     0.76400
O1640       O  0.29642039  0.84148804  0.80681528    -0.57400
C1641       C  0.35779018  0.85446065  0.87022060     0.76300
C1642       C  0.35175245  0.85535738  0.74548702     0.78700
Cd1643     Cd  0.33394603  0.83582710  0.81176100     1.37500
O1644       O  0.34684659  0.80236173  0.82914917    -0.56300
O1645       O  0.36016589  0.84082297  0.76296430    -0.55100
C1646       C  0.29319336  0.84109038  0.84247307     0.78700
O1647       O  0.33417175  0.86023086  0.75717715    -0.57400
O1648       O  0.32632728  0.80220809  0.78157847    -0.55900
O1649       O  0.34806930  0.86510868  0.84638368    -0.55900
O1650       O  0.30874132  0.83887816  0.86303315    -0.55100
O1651       O  0.41650589  0.89584868  0.50063369    -0.56300
C1652       C  0.45794966  0.91426457  0.57344161     0.76400
O1653       O  0.40701742  0.95342199  0.56702727    -0.57400
C1654       C  0.39745120  0.89400351  0.49710555     0.76300
C1655       C  0.39397757  0.89832579  0.62323073     0.78700
Cd1656     Cd  0.41476444  0.91649706  0.55894059     1.37500
O1657       O  0.44897236  0.90143032  0.55234769    -0.56300
O1658       O  0.41005471  0.89089096  0.60917398    -0.55100
C1659       C  0.41013834  0.95793728  0.53236195     0.78700
O1660       O  0.38775277  0.91479290  0.60858944    -0.57400
O1661       O  0.44680250  0.92762316  0.58901637    -0.55900
O1662       O  0.38651796  0.90222507  0.52249279    -0.55900
O1663       O  0.41488555  0.94333288  0.51062910    -0.55100
O1664       O  0.45164401  0.09339207  0.95709340    -0.56300
C1665       C  0.40015007  0.10360664  0.00599632     0.76400
O1666       O  0.39088721  0.08173727  0.89153712    -0.57400
C1667       C  0.46013733  0.08365073  0.93031567     0.76300
C1668       C  0.41215279  0.04035108  0.97003812     0.78700
Cd1669     Cd  0.41683317  0.08188001  0.94277124     1.37500
O1670       O  0.41791942  0.10771399  0.99422263    -0.56300
O1671       O  0.41192648  0.05586659  0.99133008    -0.55100
C1672       C  0.39388799  0.09991628  0.88095308     0.78700
O1673       O  0.41401540  0.04391818  0.93468587    -0.57400
O1674       O  0.39033676  0.09019668  0.98768909    -0.55900
O1675       O  0.44851950  0.07356556  0.90859555    -0.55900
O1676       O  0.40798617  0.10930128  0.89802309    -0.55100
O1677       O  0.14235695  0.15539901  0.62190086    -0.56300
C1678       C  0.16299123  0.20068266  0.56282857     0.76400
O1679       O  0.20287593  0.14110271  0.57616924    -0.57400
C1680       C  0.14782110  0.13813484  0.63415010     0.76300
C1681       C  0.15090663  0.13633866  0.00790066     0.78700
Cd1682     Cd  0.16856182  0.15739806  0.57242669     1.37500
O1683       O  0.15394127  0.19051742  0.58830730    -0.56300
O1684       O  0.14097890  0.14119932  0.53735407    -0.55100
C1685       C  0.20961308  0.15308493  0.60160587     0.78700
O1686       O  0.16937360  0.14191503  0.50709813    -0.57400
O1687       O  0.17406293  0.19064139  0.53992392    -0.55900
O1688       O  0.16291056  0.12992889  0.61788224    -0.55900
O1689       O  0.19771476  0.16722745  0.61150460    -0.55100
O1690       O  0.34382752  0.19384480  0.67133603    -0.56300
C1691       C  0.35719587  0.14169187  0.63156652     0.76400
O1692       O  0.33476920  0.13233918  0.73988714    -0.57400
C1693       C  0.33279517  0.20378967  0.69429971     0.76300
C1694       C  0.29141738  0.15362035  0.66507636     0.78700
Cd1695     Cd  0.33274136  0.15975638  0.69064876     1.37500
O1696       O  0.36276019  0.15778178  0.64852369    -0.56300
O1697       O  0.30558146  0.15929195  0.64313498    -0.55100
C1698       C  0.34969206  0.13988567  0.75775908     0.78700
O1699       O  0.29628903  0.15063234  0.69961079    -0.57400
O1700       O  0.34043377  0.13415254  0.64219059    -0.55900
O1701       O  0.32215401  0.19335772  0.71724280    -0.55900
O1702       O  0.35603144  0.15687377  0.74568266    -0.55100
O1703       O  0.09447298  0.88702885  0.74390670    -0.56300
C1704       C  0.04832481  0.91175729  0.68552245     0.76400
O1705       O  0.10226034  0.95101531  0.69478820    -0.57400
C1706       C  0.11155975  0.89259593  0.75678983     0.76300
C1707       C  0.11186429  0.89752613  0.63050343     0.78700
Cd1708     Cd  0.09166067  0.91450253  0.69665456     1.37500
O1709       O  0.05769708  0.90152338  0.71041969    -0.56300
O1710       O  0.09911575  0.88769151  0.65019195    -0.55100
C1711       C  0.09400281  0.95554008  0.72643011     0.78700
O1712       O  0.11504344  0.91581271  0.64053178    -0.57400
O1713       O  0.05917707  0.92270615  0.66380206    -0.55900
O1714       O  0.11939292  0.90817851  0.74153213    -0.55900
O1715       O  0.08474948  0.94123289  0.74315798    -0.55100
O1716       O  0.08932026  0.10475968  0.77259144    -0.56300
C1717       C  0.04256153  0.08239072  0.82904491     0.76400
O1718       O  0.09976518  0.04279021  0.82231631    -0.57400
C1719       C  0.10598084  0.09826094  0.75923809     0.76300
C1720       C  0.10693627  0.09511764  0.88630198     0.78700
Cd1721     Cd  0.08581524  0.07807500  0.82131116     1.37500
O1722       O  0.05290118  0.09237113  0.80510739    -0.56300
O1723       O  0.10004998  0.10582731  0.85941427    -0.55100
C1724       C  0.08979275  0.03680003  0.79346065     0.78700
O1725       O  0.10311942  0.07621231  0.88458227    -0.57400
O1726       O  0.05241532  0.07137370  0.85211958    -0.55900
O1727       O  0.11315362  0.08245637  0.77474787    -0.55900
O1728       O  0.07765162  0.04957725  0.77920555    -0.55100
C1729       C  0.09471880  0.97646726  0.74333489    -0.03800
C1730       C  0.09574936  0.97908013  0.78345912    -0.00900
C1731       C  0.09467595  0.99874100  0.79985384     0.04100
C1732       C  0.09226310  0.01606929  0.77644146    -0.03800
C1733       C  0.09179656  0.01351276  0.73629723    -0.00900
C1734       C  0.09322064  0.99389395  0.71987447     0.04100
C1735       C  0.09794768  0.96152274  0.80822626     0.38700
C1736       C  0.08987390  0.03110603  0.71152168     0.38700
C1737       C  0.09225006  0.99173824  0.67872735     0.37100
C1738       C  0.09513348  0.00090610  0.84104089     0.37100
N1739       N  0.09149677  0.99010549  0.64589245    -0.37700
N1740       N  0.09549265  0.00250727  0.87390781    -0.37700
N1741       N  0.08817768  0.04513145  0.69184571    -0.37100
N1742       N  0.09955515  0.94750749  0.82795502    -0.37100
C1743       C  0.13710311  0.12798406  0.66601700    -0.03800
C1744       C  0.11565805  0.12712760  0.66659742    -0.00900
C1745       C  0.10544201  0.11774121  0.69727747     0.04100
C1746       C  0.11663788  0.10860949  0.72718618    -0.03800
C1747       C  0.13816714  0.10926635  0.72615785    -0.00900
C1748       C  0.14831057  0.11903055  0.69586999     0.04100
C1749       C  0.10408443  0.13504205  0.63467361     0.38700
C1750       C  0.15006971  0.10051411  0.75683173     0.38700
C1751       C  0.17035607  0.12040437  0.69616700     0.37100
C1752       C  0.08338033  0.11707033  0.69722393     0.37100
N1753       N  0.18791450  0.12149319  0.69643738    -0.37700
N1754       N  0.06579113  0.11668909  0.69712808    -0.37700
N1755       N  0.15963541  0.09351807  0.78117151    -0.37100
N1756       N  0.09492038  0.14123105  0.60905114    -0.37100
C1757       C  0.11923056  0.10447504  0.91744693    -0.03800
C1758       C  0.13393055  0.11955354  0.90860757    -0.00900
C1759       C  0.14462703  0.12969481  0.93793296     0.04100
C1760       C  0.14105940  0.12460575  0.97647124    -0.03800
C1761       C  0.12724157  0.10867464  0.98518375    -0.00900
C1762       C  0.11624413  0.09880757  0.95588581     0.04100
C1763       C  0.13843123  0.12443665  0.86913159     0.38700
C1764       C  0.12459926  0.10207532  0.52438288     0.38700
C1765       C  0.10131050  0.08337177  0.96563119     0.37100
C1766       C  0.15870144  0.14593065  0.92827308     0.37100
N1767       N  0.08938339  0.07109954  0.97354071    -0.37700
N1768       N  0.16988193  0.15889620  0.92042282    -0.37700
N1769       N  0.12262677  0.09684140  0.55566652    -0.37100
N1770       N  0.14203268  0.12830878  0.83766402    -0.37100
C1771       C  0.27019995  0.15114754  0.65069847    -0.03800
C1772       C  0.26660670  0.14289184  0.61397250    -0.00900
C1773       C  0.24679373  0.14274721  0.59836494     0.04100
C1774       C  0.23026452  0.15098360  0.61923309    -0.03800
C1775       C  0.23372688  0.15793376  0.65707477    -0.00900
C1776       C  0.25354579  0.15814564  0.67251756     0.04100
C1777       C  0.28333809  0.13442307  0.59205313     0.38700
C1778       C  0.21691672  0.16477014  0.68071746     0.38700
C1779       C  0.25683545  0.16662416  0.71028742     0.37100
C1780       C  0.24375979  0.13465467  0.56025494     0.37100
N1781       N  0.25945895  0.17343287  0.74035394    -0.37700
N1782       N  0.24146646  0.12810041  0.52989420    -0.37700
N1783       N  0.20358681  0.17025470  0.69970362    -0.37100
N1784       N  0.29669617  0.12772236  0.57456914    -0.37100
C1785       C  0.36955881  0.13205092  0.60086655    -0.03800
C1786       C  0.38091763  0.14412169  0.57495368    -0.00900
C1787       C  0.39170956  0.13483713  0.54472920     0.04100
C1788       C  0.39106063  0.11348703  0.53996518    -0.03800
C1789       C  0.38061695  0.10138542  0.56687492    -0.00900
C1790       C  0.36976585  0.11058142  0.59688817     0.04100
C1791       C  0.38069640  0.16618026  0.57787404     0.38700
C1792       C  0.38149281  0.07929566  0.56440185     0.38700
C1793       C  0.35896556  0.09769474  0.62374329     0.37100
C1794       C  0.40280294  0.14738457  0.51773721     0.37100
N1795       N  0.35026622  0.08727432  0.64476196    -0.37700
N1796       N  0.41169211  0.15746102  0.99638985    -0.37700
N1797       N  0.38224128  0.06170579  0.56260007    -0.37100
N1798       N  0.38053403  0.18377783  0.58000548    -0.37100
C1799       C  0.38154981  0.10985204  0.85038436    -0.03800
C1800       C  0.37743152  0.13102971  0.85201392    -0.00900
C1801       C  0.36679353  0.14070616  0.82216096     0.04100
C1802       C  0.35963262  0.12933450  0.79058652    -0.03800
C1803       C  0.36289715  0.10800620  0.78982522    -0.00900
C1804       C  0.37385331  0.09835664  0.81937343     0.04100
C1805       C  0.38339442  0.14292872  0.88513796     0.38700
C1806       C  0.35578213  0.09590164  0.75786272     0.38700
C1807       C  0.37773342  0.07662055  0.81695115     0.37100
C1808       C  0.36281536  0.16241626  0.82462623     0.37100
N1809       N  0.38079917  0.05928673  0.81511215    -0.37700
N1810       N  0.35972310  0.17973318  0.82672631    -0.37700
N1811       N  0.35015117  0.08602657  0.73262562    -0.37100
N1812       N  0.38801122  0.15246452  0.91154870    -0.37100
C1813       C  0.40902109  0.97923345  0.51766986    -0.03800
C1814       C  0.41721247  0.99550929  0.53913744    -0.00900
C1815       C  0.41802696  0.01533993  0.52371163     0.04100
C1816       C  0.41071847  0.01927716  0.98633524    -0.03800
C1817       C  0.40218130  0.00297295  0.96510476    -0.00900
C1818       C  0.40116596  0.98316789  0.98085460     0.04100
C1819       C  0.42587423  0.99178084  0.57652108     0.38700
C1820       C  0.39416105  0.00641310  0.92715347     0.38700
C1821       C  0.39152212  0.96687459  0.95934681     0.37100
C1822       C  0.42739538  0.03142966  0.54616259     0.37100
N1823       N  0.38380309  0.95385406  0.94238851    -0.37700
N1824       N  0.43484015  0.04420938  0.56415133    -0.37700
N1825       N  0.38781149  0.00896995  0.89676434    -0.37100
N1826       N  0.43285665  0.98892890  0.60631044    -0.37100
C1827       C  0.38826008  0.88302682  0.96459427    -0.03800
C1828       C  0.39365374  0.88826729  0.92686718    -0.00900
C1829       C  0.38376784  0.87885406  0.89585802     0.04100
C1830       C  0.36878101  0.86386687  0.90244394    -0.03800
C1831       C  0.36383024  0.85818546  0.94016225    -0.00900
C1832       C  0.37347539  0.86782177  0.97116431     0.04100
C1833       C  0.40892598  0.90380873  0.91990187     0.38700
C1834       C  0.34826427  0.84293017  0.94715020     0.38700
C1835       C  0.36853849  0.86173241  0.50985879     0.37100
C1836       C  0.38914314  0.88453883  0.85720199     0.37100
N1837       N  0.36471190  0.85686145  0.54074218    -0.37700
N1838       N  0.39347397  0.88927853  0.82649559    -0.37700
N1839       N  0.33584283  0.83077353  0.95262762    -0.37100
N1840       N  0.42115117  0.91616058  0.91441016    -0.37100
C1841       C  0.36238405  0.86642470  0.71390683    -0.03800
C1842       C  0.35145114  0.87427107  0.68241527    -0.00900
C1843       C  0.36173668  0.88475252  0.65288677     0.04100
C1844       C  0.38297267  0.88796677  0.65489803    -0.03800
C1845       C  0.39387469  0.88030879  0.68638091    -0.00900
C1846       C  0.38374479  0.86943943  0.71543966     0.04100
C1847       C  0.32971437  0.87088147  0.67933040     0.38700
C1848       C  0.41558552  0.88402002  0.68946354     0.38700
C1849       C  0.39553775  0.86166557  0.74717430     0.37100
C1850       C  0.35058887  0.89121642  0.61934914     0.37100
N1851       N  0.40509340  0.85533784  0.77216053    -0.37700
N1852       N  0.34175909  0.89622359  0.59243878    -0.37700
N1853       N  0.43287954  0.88698660  0.69199359    -0.37100
N1854       N  0.31237229  0.86823782  0.67669483    -0.37100
C1855       C  0.14166293  0.86116838  0.84884895    -0.03800
C1856       C  0.12021738  0.86218900  0.84784066    -0.00900
C1857       C  0.11040146  0.87291814  0.81835901     0.04100
C1858       C  0.12187826  0.88151991  0.78821675    -0.03800
C1859       C  0.14332241  0.87974817  0.78856221    -0.00900
C1860       C  0.15316995  0.87012441  0.81925017     0.04100
C1861       C  0.10818547  0.85284514  0.87784506     0.38700
C1862       C  0.15538566  0.88725852  0.75685415     0.38700
C1863       C  0.17522597  0.86912136  0.81984449     0.37100
C1864       C  0.08860099  0.87616284  0.82052589     0.37100
N1865       N  0.19280411  0.86849769  0.82041224    -0.37700
N1866       N  0.07126610  0.87897999  0.82249949    -0.37700
N1867       N  0.16507233  0.89312639  0.73157622    -0.37100
N1868       N  0.09854157  0.84526953  0.90154173    -0.37100
C1869       C  0.14327060  0.86599668  0.53918142    -0.03800
C1870       C  0.12197422  0.86378975  0.54412386    -0.00900
C1871       C  0.11167857  0.87495659  0.57258422     0.04100
C1872       C  0.12257298  0.88772921  0.59781580    -0.03800
C1873       C  0.14381540  0.88996908  0.59304624    -0.00900
C1874       C  0.15404135  0.87948874  0.56342725     0.04100
C1875       C  0.11052553  0.84949685  0.52084055     0.38700
C1876       C  0.15537958  0.90244927  0.61947007     0.38700
C1877       C  0.17555039  0.88318278  0.55730635     0.37100
C1878       C  0.08966788  0.87370639  0.57508040     0.37100
N1879       N  0.19267808  0.88625045  0.55228712    -0.37700
N1880       N  0.07211759  0.87280799  0.57680884    -0.37700
N1881       N  0.16466668  0.91230533  0.64061141    -0.37100
N1882       N  0.10138346  0.83806446  0.50241893    -0.37100
C1883       C  0.23379918  0.83981625  0.89678202    -0.03800
C1884       C  0.23631907  0.83274025  0.85880758    -0.00900
C1885       C  0.25547426  0.83366405  0.84071637     0.04100
C1886       C  0.27238763  0.84227271  0.85976861    -0.03800
C1887       C  0.26955096  0.85060495  0.89679955    -0.00900
C1888       C  0.25050127  0.84907817  0.91540476     0.04100
C1889       C  0.21911026  0.82467249  0.83761627     0.38700
C1890       C  0.28612506  0.86112989  0.91585289     0.38700
C1891       C  0.24843049  0.85639587  0.95429166     0.37100
C1892       C  0.25773518  0.82484219  0.80296030     0.37100
N1893       N  0.24681316  0.86219181  0.98535402    -0.37700
N1894       N  0.25932732  0.81769909  0.77289529    -0.37700
N1895       N  0.29924592  0.86960611  0.93111131    -0.37100
N1896       N  0.20543613  0.81825063  0.82067640    -0.37100
C1897       C  0.40740372  0.47772904  0.98006204    -0.03800
C1898       C  0.42636280  0.48605504  0.99096494    -0.00900
C1899       C  0.42725513  0.50489495  0.51018189     0.04100
C1900       C  0.40918727  0.51560192  0.51876864    -0.03800
C1901       C  0.39022172  0.50733516  0.50777402    -0.00900
C1902       C  0.38934148  0.48848556  0.98828765     0.04100
C1903       C  0.44510623  0.47562127  0.98101002     0.38700
C1904       C  0.37166436  0.51862808  0.51492542     0.38700
C1905       C  0.36983406  0.48008333  0.97708865     0.37100
C1906       C  0.44686803  0.51318693  0.52128722     0.37100
N1907       N  0.35427452  0.47341767  0.96800865    -0.37700
N1908       N  0.46252557  0.51978034  0.52997355    -0.37700
N1909       N  0.35684206  0.52764273  0.52045170    -0.37100
N1910       N  0.46001629  0.46733246  0.97286578    -0.37100
C1911       C  0.33894402  0.72613467  0.80489262    -0.03800
C1912       C  0.33870637  0.73682248  0.76995214    -0.00900
C1913       C  0.33847476  0.75836510  0.76965339     0.04100
C1914       C  0.33799775  0.76941756  0.80433663    -0.03800
C1915       C  0.33818027  0.75865223  0.83929146    -0.00900
C1916       C  0.33894808  0.73720098  0.83955347     0.04100
C1917       C  0.33927221  0.72567432  0.73420414     0.38700
C1918       C  0.33652029  0.76951745  0.87530899     0.38700
C1919       C  0.33884271  0.72656156  0.87583704     0.37100
C1920       C  0.33941671  0.76907914  0.73356861     0.37100
N1921       N  0.33881996  0.71813761  0.90479332    -0.37700
N1922       N  0.34026708  0.77755409  0.70470726    -0.37700
N1923       N  0.33510821  0.77812851  0.90402700    -0.37100
N1924       N  0.33970649  0.71675090  0.70571598    -0.37100
C1925       C  0.36275465  0.62985789  0.71733202    -0.03800
C1926       C  0.35541204  0.61070178  0.70470985    -0.00900
C1927       C  0.36586483  0.59970948  0.67603077     0.04100
C1928       C  0.38406116  0.60750628  0.66011100    -0.03800
C1929       C  0.39165571  0.62643131  0.67339315    -0.00900
C1930       C  0.38094716  0.63764465  0.70131623     0.04100
C1931       C  0.33764245  0.60168433  0.72254924     0.38700
C1932       C  0.41105434  0.63406981  0.65961259     0.38700
C1933       C  0.38872947  0.65737271  0.71319038     0.37100
C1934       C  0.35760408  0.58045934  0.66269676     0.37100
N1935       N  0.39502855  0.67306172  0.72262442    -0.37700
N1936       N  0.35098516  0.56509283  0.65222308    -0.37700
N1937       N  0.42658221  0.64003359  0.64874525    -0.37100
N1938       N  0.32356945  0.59441937  0.73700650    -0.37100
C1939       C  0.38245519  0.60807359  0.97101908    -0.03800
C1940       C  0.39260157  0.62407558  0.95166200    -0.00900
C1941       C  0.38329407  0.63393445  0.92062884     0.04100
C1942       C  0.36332579  0.62860368  0.90939529    -0.03800
C1943       C  0.35282084  0.61320556  0.92968735    -0.00900
C1944       C  0.36235216  0.60289261  0.96006195     0.04100
C1945       C  0.41241213  0.63113030  0.96441842     0.38700
C1946       C  0.33188548  0.60828078  0.92024144     0.38700
C1947       C  0.35124749  0.58687297  0.97962288     0.37100
C1948       C  0.39472872  0.64924139  0.89977339     0.37100
N1949       N  0.34216502  0.57422931  0.99508405    -0.37700
N1950       N  0.40400245  0.66138528  0.88335036    -0.37700
N1951       N  0.31519079  0.60437225  0.91276984    -0.37100
N1952       N  0.42815316  0.63676497  0.97478260    -0.37100
C1953       C  0.16309218  0.72444507  0.95660865    -0.03800
C1954       C  0.18040587  0.73440639  0.97182955    -0.00900
C1955       C  0.18122395  0.75589467  0.97362208     0.04100
C1956       C  0.16474589  0.76772534  0.96020466    -0.03800
C1957       C  0.14692811  0.75771701  0.94737991    -0.00900
C1958       C  0.14606764  0.73623762  0.94581277     0.04100
C1959       C  0.19801872  0.72271464  0.98364878     0.38700
C1960       C  0.12931599  0.76948249  0.93581923     0.38700
C1961       C  0.12744206  0.72632403  0.93352856     0.37100
C1962       C  0.19967846  0.76569548  0.98707331     0.37100
N1963       N  0.11252870  0.71850246  0.92385322    -0.37700
N1964       N  0.21444716  0.77339824  0.99780113    -0.37700
N1965       N  0.11530231  0.77886379  0.92649102    -0.37100
N1966       N  0.21207964  0.71343852  0.99309651    -0.37100
C1967       C  0.23083383  0.65807060  0.88728696    -0.03800
C1968       C  0.24059589  0.63947160  0.87835908    -0.00900
C1969       C  0.26038168  0.63945587  0.86245559     0.04100
C1970       C  0.27066497  0.65802905  0.85560659    -0.03800
C1971       C  0.26081633  0.67662183  0.86428903    -0.00900
C1972       C  0.24105027  0.67664207  0.87999519     0.04100
C1973       C  0.23007356  0.62031056  0.88442576     0.38700
C1974       C  0.27079234  0.69587875  0.85609166     0.38700
C1975       C  0.23143682  0.69589805  0.88950678     0.37100
C1976       C  0.27033026  0.62025635  0.85407630     0.37100
N1977       N  0.22375273  0.71123699  0.89705805    -0.37700
N1978       N  0.27825701  0.60493616  0.84734465    -0.37700
N1979       N  0.27874237  0.71121776  0.84949995    -0.37100
N1980       N  0.22167535  0.60502141  0.88922328    -0.37100
C1981       C  0.33214217  0.22649375  0.69330553    -0.03800
C1982       C  0.33135173  0.23665630  0.65779866    -0.00900
C1983       C  0.33123823  0.25813186  0.65626218     0.04100
C1984       C  0.33216921  0.26981724  0.69020661    -0.03800
C1985       C  0.33260745  0.25966341  0.72575407    -0.00900
C1986       C  0.33235837  0.23812330  0.72730816     0.04100
C1987       C  0.32963322  0.22503558  0.62263614     0.38700
C1988       C  0.33400229  0.27134308  0.76082016     0.38700
C1989       C  0.33276276  0.22798692  0.76400365     0.37100
C1990       C  0.32912968  0.26812103  0.61957374     0.37100
N1991       N  0.33296333  0.21992150  0.79330925    -0.37700
N1992       N  0.32735456  0.27605834  0.59033529    -0.37700
N1993       N  0.33517917  0.28072146  0.78871680    -0.37100
N1994       N  0.32820166  0.21578351  0.59463076    -0.37100
C1995       C  0.37437354  0.38720079  0.51993944    -0.03800
C1996       C  0.36650253  0.39878554  0.55055908    -0.00900
C1997       C  0.35607485  0.38905329  0.58059950     0.04100
C1998       C  0.35369401  0.36760377  0.58043267    -0.03800
C1999       C  0.36057646  0.35624160  0.54862185    -0.00900
C2000       C  0.37109304  0.36596357  0.51874896     0.04100
C2001       C  0.36990394  0.42064728  0.55204448     0.38700
C2002       C  0.35587476  0.33469133  0.54553568     0.38700
C2003       C  0.37800879  0.35414299  0.48617877     0.37100
C2004       C  0.34818277  0.40123473  0.61185911     0.37100
N2005       N  0.38352285  0.34476261  0.96018772    -0.37700
N2006       N  0.34177322  0.41109816  0.63647180    -0.37700
N2007       N  0.35190415  0.31756108  0.54295552    -0.37100
N2008       N  0.37268570  0.43805945  0.55312803    -0.37100
C2009       C  0.37561989  0.39058024  0.83271656    -0.03800
C2010       C  0.36021367  0.37622199  0.84132793    -0.00900
C2011       C  0.35058716  0.36509990  0.81190966     0.04100
C2012       C  0.35569942  0.36876068  0.77338901    -0.03800
C2013       C  0.37038645  0.38388656  0.76470146    -0.00900
C2014       C  0.38033581  0.39468825  0.79422428     0.04100
C2015       C  0.35364195  0.37346192  0.88051610     0.38700
C2016       C  0.37504178  0.38865572  0.72525813     0.38700
C2017       C  0.39578620  0.40967023  0.78492472     0.37100
C2018       C  0.33611230  0.34921856  0.82154480     0.37100
N2019       N  0.40808428  0.42165540  0.77750181    -0.37700
N2020       N  0.32469573  0.33644577  0.82931017    -0.37700
N2021       N  0.37869697  0.39243212  0.69376670    -0.37100
N2022       N  0.34820783  0.37150456  0.91169698    -0.37100
C2023       C  0.16122808  0.22329577  0.56116500    -0.03800
C2024       C  0.16190757  0.23483205  0.59530525    -0.00900
C2025       C  0.16084875  0.25627084  0.59414716     0.04100
C2026       C  0.15927363  0.26651814  0.55881617    -0.03800
C2027       C  0.15837171  0.25502721  0.52472955    -0.00900
C2028       C  0.15921552  0.23350898  0.52590373     0.04100
C2029       C  0.16459267  0.22476921  0.63180923     0.38700
C2030       C  0.15591524  0.26531549  0.98847803     0.38700
C2031       C  0.15719899  0.22188794  0.99088411     0.37100
C2032       C  0.16230644  0.26775365  0.62951125     0.37100
N2033       N  0.15545953  0.21261526  0.96296924    -0.37700
N2034       N  0.16346902  0.27681506  0.65777745    -0.37700
N2035       N  0.15391294  0.27358214  0.95961770    -0.37100
N2036       N  0.16674000  0.21678722  0.66092000    -0.37100
C2037       C  0.26421951  0.33707007  0.64021003    -0.03800
C2038       C  0.25528969  0.35508450  0.62604008    -0.00900
C2039       C  0.23565234  0.35451564  0.60979291     0.04100
C2040       C  0.22478330  0.33594955  0.60778999    -0.03800
C2041       C  0.23365253  0.31798841  0.62246644    -0.00900
C2042       C  0.25321604  0.31858346  0.63876679     0.04100
C2043       C  0.26647799  0.37413823  0.62728716     0.38700
C2044       C  0.22294568  0.29866866  0.61975949     0.38700
C2045       C  0.26178492  0.30020998  0.65516230     0.37100
C2046       C  0.22643634  0.37316887  0.59608442     0.37100
N2047       N  0.26856665  0.28560544  0.66845774    -0.37700
N2048       N  0.21905592  0.38804649  0.58519102    -0.37700
N2049       N  0.21446370  0.28325009  0.61752531    -0.37100
N2050       N  0.27537349  0.38935504  0.62831912    -0.37100
C2051       C  0.13878283  0.63196390  0.83113345    -0.03800
C2052       C  0.11783948  0.62753278  0.83298810    -0.00900
C2053       C  0.10822532  0.61744021  0.80247991     0.04100
C2054       C  0.11963013  0.61127630  0.77015043    -0.03800
C2055       C  0.14063834  0.61593288  0.76828279    -0.00900
C2056       C  0.15012446  0.62637300  0.79860360     0.04100
C2057       C  0.10634807  0.63246206  0.86718375     0.38700
C2058       C  0.15246097  0.61060833  0.73473965     0.38700
C2059       C  0.17144317  0.63196944  0.79584531     0.37100
C2060       C  0.08668204  0.61288192  0.80526546     0.37100
N2061       N  0.18839547  0.63657779  0.79366533    -0.37700
N2062       N  0.06947140  0.60943586  0.80761389    -0.37700
N2063       N  0.16193119  0.60638387  0.70803744    -0.37100
N2064       N  0.09724851  0.63628310  0.89454064    -0.37100
C2065       C  0.13794699  0.62451956  0.51928891    -0.03800
C2066       C  0.14725963  0.60749061  0.53674189    -0.00900
C2067       C  0.13736174  0.59702675  0.56675171     0.04100
C2068       C  0.11758316  0.60282281  0.57846852    -0.03800
C2069       C  0.10790209  0.61922827  0.55974294    -0.00900
C2070       C  0.11818697  0.63033112  0.53120583     0.04100
C2071       C  0.16694685  0.60042737  0.52353987     0.38700
C2072       C  0.08716787  0.62475703  0.56960656     0.38700
C2073       C  0.10865773  0.64845936  0.51576019     0.37100
C2074       C  0.14814223  0.58107780  0.58690017     0.37100
N2075       N  0.10104141  0.66299338  0.50385012    -0.37700
N2076       N  0.15690170  0.56852361  0.60312743    -0.37700
N2077       N  0.07064941  0.62914581  0.57748283    -0.37100
N2078       N  0.18260809  0.59474038  0.51289497    -0.37100
C2079       C  0.13495485  0.36333101  0.96586248    -0.03800
C2080       C  0.14040481  0.38369386  0.95720501    -0.00900
C2081       C  0.12976097  0.39469204  0.92884993     0.04100
C2082       C  0.11312459  0.38567752  0.90941351    -0.03800
C2083       C  0.10739544  0.36547519  0.91894736    -0.00900
C2084       C  0.11855906  0.35424318  0.94604449     0.04100
C2085       C  0.15648797  0.39374834  0.97844452     0.38700
C2086       C  0.08941179  0.35629599  0.90211487     0.38700
C2087       C  0.11337164  0.33302911  0.95268340     0.37100
C2088       C  0.13628445  0.41520153  0.91945772     0.37100
N2089       N  0.10926643  0.31609678  0.95776774    -0.37700
N2090       N  0.14153034  0.43156447  0.91205031    -0.37700
N2091       N  0.07500694  0.34900386  0.88894657    -0.37100
N2092       N  0.16923418  0.40183153  0.49546008    -0.37100
C2093       C  0.11213390  0.38530084  0.71691411    -0.03800
C2094       C  0.10126778  0.37147436  0.69344600    -0.00900
C2095       C  0.11078777  0.36234521  0.66173178     0.04100
C2096       C  0.13159461  0.36601104  0.65421705    -0.03800
C2097       C  0.14246927  0.37987643  0.67741677    -0.00900
C2098       C  0.13273448  0.38974227  0.70812849     0.04100
C2099       C  0.08043349  0.36584171  0.70238396     0.38700
C2100       C  0.16396536  0.38362764  0.67071608     0.38700
C2101       C  0.14405592  0.40469074  0.73013078     0.37100
C2102       C  0.09887819  0.34963729  0.63618841     0.37100
N2103       N  0.15315311  0.41658552  0.74762664    -0.37700
N2104       N  0.08930354  0.33962294  0.61573424    -0.37700
N2105       N  0.18107997  0.38666403  0.66560707    -0.37100
N2106       N  0.06388647  0.36116808  0.70939032    -0.37100
C2107       C  0.09493978  0.47663649  0.76569668    -0.03800
C2108       C  0.09770098  0.47854266  0.72575904    -0.00900
C2109       C  0.09840122  0.49796468  0.70846549     0.04100
C2110       C  0.09662445  0.51583619  0.73096577    -0.03800
C2111       C  0.09573122  0.51385107  0.77126629    -0.00900
C2112       C  0.09458971  0.49443003  0.78840222     0.04100
C2113       C  0.10005970  0.46047183  0.70216779     0.38700
C2114       C  0.09627336  0.53176569  0.79563170     0.38700
C2115       C  0.09206294  0.49294981  0.82941640     0.37100
C2116       C  0.10041035  0.49928318  0.66732084     0.37100
N2117       N  0.09000215  0.49185241  0.86213005    -0.37700
N2118       N  0.10210240  0.50020966  0.63450690    -0.37700
N2119       N  0.09675368  0.54599723  0.81515502    -0.37100
N2120       N  0.10196979  0.44610032  0.68332596    -0.37100
C2121       C  0.77176715  0.84284759  0.89634500    -0.03800
C2122       C  0.76852172  0.84991003  0.85877474    -0.00900
C2123       C  0.74886343  0.84950895  0.84262102     0.04100
C2124       C  0.73214515  0.84203622  0.86391519    -0.03800
C2125       C  0.73530988  0.83596152  0.90230261    -0.00900
C2126       C  0.75499114  0.83636691  0.91833914     0.04100
C2127       C  0.78544629  0.85787162  0.83670909     0.38700
C2128       C  0.71835810  0.82929278  0.92575136     0.38700
C2129       C  0.75802396  0.82919405  0.95703505     0.37100
C2130       C  0.74617348  0.85604800  0.80346436     0.37100
N2131       N  0.76033438  0.82344576  0.98789691    -0.37700
N2132       N  0.74407721  0.86127911  0.77222425    -0.37700
N2133       N  0.70489945  0.82390034  0.94450621    -0.37100
N2134       N  0.79893350  0.86425358  0.81916110    -0.37100
C2135       C  0.52358908  0.91372561  0.57992310    -0.03800
C2136       C  0.51299027  0.93240340  0.57896783    -0.00900
C2137       C  0.49155756  0.93259787  0.57802976     0.04100
C2138       C  0.48046666  0.91408234  0.57838648    -0.03800
C2139       C  0.49113402  0.89543786  0.58149378    -0.00900
C2140       C  0.51260191  0.89527307  0.58210898     0.04100
C2141       C  0.52414714  0.95148802  0.57701206     0.38700
C2142       C  0.48007691  0.87640588  0.58519986     0.38700
C2143       C  0.52341367  0.87613445  0.58613527     0.37100
C2144       C  0.48109143  0.95194291  0.57457203     0.37100
N2145       N  0.53209591  0.86092780  0.58956296    -0.37700
N2146       N  0.47286169  0.96742818  0.57173842    -0.37700
N2147       N  0.47131449  0.86120218  0.58839240    -0.37100
N2148       N  0.53309270  0.96666158  0.57551217    -0.37100
C2149       C  0.61912610  0.88266753  0.97322692    -0.03800
C2150       C  0.64059620  0.88123297  0.97260210    -0.00900
C2151       C  0.65051039  0.87167681  0.94184280     0.04100
C2152       C  0.63906240  0.86284093  0.91205798    -0.03800
C2153       C  0.61763540  0.86327166  0.91353410    -0.00900
C2154       C  0.60766857  0.87337413  0.94370477     0.04100
C2155       C  0.65267832  0.88888741  0.00422436     0.38700
C2156       C  0.60574735  0.85400140  0.88320070     0.38700
C2157       C  0.58566055  0.87478550  0.94334648     0.37100
C2158       C  0.67254776  0.87056507  0.94141568     0.37100
N2159       N  0.56808980  0.87591758  0.94308012    -0.37700
N2160       N  0.69013525  0.86986746  0.94124851    -0.37700
N2161       N  0.59625517  0.84657462  0.85915317    -0.37100
N2162       N  0.66241723  0.89483912  0.02932854    -0.37100
C2163       C  0.64231909  0.86585419  0.71918343    -0.03800
C2164       C  0.65038082  0.88375994  0.70263649    -0.00900
C2165       C  0.64002029  0.89350556  0.67254453     0.04100
C2166       C  0.62104686  0.88595916  0.65971239    -0.03800
C2167       C  0.61300267  0.86801447  0.67628872    -0.00900
C2168       C  0.62376219  0.85783092  0.70525243     0.04100
C2169       C  0.66894403  0.89272763  0.71742218     0.38700
C2170       C  0.59332181  0.86016572  0.66450245     0.38700
C2171       C  0.61583793  0.83872073  0.71997722     0.37100
C2172       C  0.64934174  0.91092571  0.65398583     0.37100
N2173       N  0.60952898  0.82347225  0.73157305    -0.37700
N2174       N  0.65679564  0.92473622  0.63897475    -0.37700
N2175       N  0.57763399  0.85385045  0.65529163    -0.37100
N2176       N  0.68367619  0.90002668  0.72925268    -0.37100
C2177       C  0.52571676  0.08254595  0.92500358    -0.03800
C2178       C  0.51535172  0.10120819  0.93006476    -0.00900
C2179       C  0.49392484  0.10171709  0.93049750     0.04100
C2180       C  0.48261189  0.08357499  0.92554278    -0.03800
C2181       C  0.49297173  0.06509466  0.91815254    -0.00900
C2182       C  0.51443134  0.06458485  0.91780996     0.04100
C2183       C  0.52675410  0.12002322  0.93446861     0.38700
C2184       C  0.48162427  0.04626560  0.91345875     0.38700
C2185       C  0.52477723  0.04526849  0.91243773     0.37100
C2186       C  0.48358990  0.12103726  0.93579945     0.37100
N2187       N  0.53297147  0.02983508  0.90821063    -0.37700
N2188       N  0.47547585  0.13650646  0.94008674    -0.37700
N2189       N  0.47251140  0.03128708  0.90986657    -0.37100
N2190       N  0.53589888  0.13498719  0.93795684    -0.37100
C2191       C  0.59703800  0.01817358  0.99507121    -0.03800
C2192       C  0.58970908  0.01435313  0.53274803    -0.00900
C2193       C  0.58993924  0.99441690  0.54796107     0.04100
C2194       C  0.59698445  0.97793580  0.52578398    -0.03800
C2195       C  0.60518740  0.98170186  0.98926382    -0.00900
C2196       C  0.60567609  0.00166515  0.97435180     0.04100
C2197       C  0.58160050  0.03062479  0.55638450     0.38700
C2198       C  0.61347547  0.96495263  0.96704579     0.38700
C2199       C  0.61552497  0.00493979  0.93782214     0.37100
C2200       C  0.58203884  0.99073988  0.58604863     0.37100
N2201       N  0.62353742  0.00747747  0.90881004    -0.37700
N2202       N  0.57581076  0.98775764  0.61641590    -0.37700
N2203       N  0.62000325  0.95156552  0.94935728    -0.37100
N2204       N  0.57508302  0.04340554  0.57561853    -0.37100
C2205       C  0.02571179  0.91143185  0.68339489    -0.03800
C2206       C  0.01547776  0.91106172  0.64791552    -0.00900
C2207       C  0.99398927  0.91087783  0.64667556     0.04100
C2208       C  0.98259278  0.91095502  0.68083896    -0.03800
C2209       C  0.99281506  0.91130858  0.71626736    -0.00900
C2210       C  0.01420393  0.91177988  0.71753354     0.04100
C2211       C  0.02696228  0.91047050  0.61260822     0.38700
C2212       C  0.98134268  0.91217622  0.75168420     0.38700
C2213       C  0.02427803  0.91389357  0.75417586     0.37100
C2214       C  0.98360145  0.91002078  0.61023550     0.37100
N2215       N  0.03229949  0.91573122  0.78333543    -0.37700
N2216       N  0.97525233  0.90930061  0.58123503    -0.37700
N2217       N  0.97219254  0.91285025  0.77987356    -0.37100
N2218       N  0.03603773  0.91003651  0.58432403    -0.37100
C2219       C  0.86672058  0.86732434  0.84471704    -0.03800
C2220       C  0.86942837  0.88874770  0.84536834    -0.00900
C2221       C  0.87936557  0.89870066  0.81494522     0.04100
C2222       C  0.88715431  0.88731481  0.78399420    -0.03800
C2223       C  0.88481516  0.86592983  0.78355309    -0.00900
C2224       C  0.87443431  0.85599866  0.81345928     0.04100
C2225       C  0.86266835  0.90063757  0.87794946     0.38700
C2226       C  0.89240387  0.85413938  0.75145232     0.38700
C2227       C  0.87095259  0.83421211  0.81093797     0.37100
C2228       C  0.88210981  0.92064869  0.81607166     0.37100
N2229       N  0.86815230  0.81683535  0.80864425    -0.37700
N2230       N  0.88430804  0.93815139  0.81675299    -0.37700
N2231       N  0.89852288  0.84485519  0.72582363    -0.37100
N2232       N  0.85737038  0.91015342  0.90392282    -0.37100
C2233       C  0.86248300  0.87088876  0.53220775    -0.03800
C2234       C  0.85551100  0.86959372  0.57024845    -0.00900
C2235       C  0.86595520  0.87989463  0.59974619     0.04100
C2236       C  0.88352923  0.89163528  0.59160816    -0.03800
C2237       C  0.89005137  0.89355389  0.55336462    -0.00900
C2238       C  0.87960251  0.88322311  0.52387216     0.04100
C2239       C  0.83809204  0.85695253  0.57952786     0.38700
C2240       C  0.90803853  0.90542984  0.54431741     0.38700
C2241       C  0.88641427  0.88550883  0.98473180     0.37100
C2242       C  0.85840806  0.87853898  0.63860663     0.37100
N2243       N  0.89188122  0.88731160  0.95354065    -0.37700
N2244       N  0.85250205  0.87750246  0.66965154    -0.37700
N2245       N  0.92238670  0.91486092  0.53691954    -0.37100
N2246       N  0.82424207  0.84687625  0.58726222    -0.37100
C2247       C  0.97695680  0.08358641  0.82417060    -0.03800
C2248       C  0.98689612  0.08526684  0.85980803    -0.00900
C2249       C  0.00836002  0.08464133  0.86175796     0.04100
C2250       C  0.02000089  0.08277732  0.82804149    -0.03800
C2251       C  0.01001802  0.08072040  0.79255407    -0.00900
C2252       C  0.98866163  0.08101821  0.79064476     0.04100
C2253       C  0.97514840  0.08817298  0.89442295     0.38700
C2254       C  0.02168700  0.07706519  0.75799233     0.38700
C2255       C  0.97878481  0.07750311  0.75416716     0.37100
C2256       C  0.01842837  0.08615972  0.89842909     0.37100
N2257       N  0.97095797  0.07456866  0.72513148    -0.37700
N2258       N  0.02645028  0.08722707  0.92771515    -0.37700
N2259       N  0.03102439  0.07405405  0.73055915    -0.37100
N2260       N  0.96587756  0.09052266  0.92215844    -0.37100
C2261       C  0.91356451  0.97912982  0.73382867    -0.03800
C2262       C  0.93163162  0.98954447  0.74401341    -0.00900
C2263       C  0.93062468  0.00904940  0.76070150     0.04100
C2264       C  0.91160727  0.01835038  0.76735066    -0.03800
C2265       C  0.89354482  0.00790320  0.75781674    -0.00900
C2266       C  0.89451187  0.98833313  0.74115453     0.04100
C2267       C  0.95138198  0.98045913  0.73672924     0.38700
C2268       C  0.87396884  0.01750696  0.76412861     0.38700
C2269       C  0.87585230  0.97738900  0.73285414     0.37100
C2270       C  0.94922516  0.01938997  0.77198183     0.37100
N2271       N  0.86102438  0.96854762  0.72629554    -0.37700
N2272       N  0.96397624  0.02767904  0.78116011    -0.37700
N2273       N  0.85835241  0.02516838  0.76911919    -0.37100
N2274       N  0.96716277  0.97326789  0.73110484    -0.37100
C2275       C  0.62116495  0.11246649  0.53542716    -0.03800
C2276       C  0.64249384  0.11564347  0.53523077    -0.00900
C2277       C  0.65199402  0.12553148  0.56617072     0.04100
C2278       C  0.64026813  0.13247146  0.59728993    -0.03800
C2279       C  0.61903979  0.12953343  0.59745976    -0.00900
C2280       C  0.60952269  0.11939537  0.56691101     0.04100
C2281       C  0.65478485  0.10914281  0.50300365     0.38700
C2282       C  0.60701100  0.13618283  0.62994557     0.38700
C2283       C  0.58788110  0.11519461  0.56915954     0.37100
C2284       C  0.67378750  0.12913191  0.56549076     0.37100
N2285       N  0.57063863  0.11176977  0.57110112    -0.37700
N2286       N  0.69115027  0.13206429  0.56509646    -0.37700
N2287       N  0.59742775  0.14145466  0.65582239    -0.37100
N2288       N  0.66466009  0.10391801  0.97746416    -0.37100
C2289       C  0.64260711  0.13120181  0.79017511    -0.03800
C2290       C  0.62446978  0.13895594  0.80608559    -0.00900
C2291       C  0.61398640  0.12798017  0.83453333     0.04100
C2292       C  0.62202414  0.10944794  0.84883308    -0.03800
C2293       C  0.64059551  0.10205682  0.83363932    -0.00900
C2294       C  0.65061695  0.11270386  0.80403280     0.04100
C2295       C  0.61688233  0.15868245  0.79398211     0.38700
C2296       C  0.64990551  0.08385714  0.84914888     0.38700
C2297       C  0.66882805  0.10420205  0.78694947     0.37100
C2298       C  0.59458803  0.13568587  0.84809469     0.37100
N2299       N  0.68328734  0.09732777  0.77321017    -0.37700
N2300       N  0.57911518  0.14188470  0.85872984    -0.37700
N2301       N  0.65746509  0.06941756  0.86156153    -0.37100
N2302       N  0.61102301  0.17448041  0.78443580    -0.37100
C2303       C  0.86032664  0.13028668  0.65388106    -0.03800
C2304       C  0.84888858  0.12087416  0.68309075    -0.00900
C2305       C  0.85882772  0.11133108  0.71380633     0.04100
C2306       C  0.88033623  0.11090110  0.71536787    -0.03800
C2307       C  0.89174879  0.12022432  0.68592027    -0.00900
C2308       C  0.88179081  0.13000114  0.65551313     0.04100
C2309       C  0.82682498  0.12174570  0.68251853     0.38700
C2310       C  0.91380306  0.11920815  0.68598986     0.38700
C2311       C  0.89375931  0.13924159  0.62530121     0.37100
C2312       C  0.84678443  0.10270997  0.74453764     0.37100
N2313       N  0.90333452  0.14664781  0.60132195    -0.37700
N2314       N  0.83719060  0.09587703  0.76908079    -0.37700
N2315       N  0.93137640  0.11837523  0.68610348    -0.37100
N2316       N  0.80924864  0.12248135  0.68208982    -0.37100
C2317       C  0.85886418  0.12884558  0.96366529    -0.03800
C2318       C  0.84842149  0.11532660  0.93905848    -0.00900
C2319       C  0.85907998  0.10476312  0.91017765     0.04100
C2320       C  0.88024062  0.10766898  0.90556865    -0.03800
C2321       C  0.89063172  0.12138654  0.92977658    -0.00900
C2322       C  0.88000101  0.13202936  0.95842161     0.04100
C2323       C  0.82672231  0.11212071  0.94342297     0.38700
C2324       C  0.91239182  0.12450670  0.92551895     0.38700
C2325       C  0.89080567  0.14700641  0.98129636     0.37100
C2326       C  0.84803581  0.09161478  0.88408140     0.37100
N2327       N  0.89941096  0.15901298  0.99934310    -0.37700
N2328       N  0.83923457  0.08119847  0.86315180    -0.37700
N2329       N  0.92971119  0.12707502  0.92208110    -0.37100
N2330       N  0.80938379  0.10964943  0.94671726    -0.37100
C2331       C  0.73100862  0.16022171  0.64631165    -0.03800
C2332       C  0.74014722  0.14142120  0.63659062    -0.00900
C2333       C  0.75913421  0.14104927  0.61768057     0.04100
C2334       C  0.76881456  0.15945368  0.60727881    -0.03800
C2335       C  0.75954134  0.17824108  0.61667587    -0.00900
C2336       C  0.74102383  0.17860442  0.63691032     0.04100
C2337       C  0.72978547  0.12242756  0.64493666     0.38700
C2338       C  0.76866621  0.19730662  0.60443575     0.38700
C2339       C  0.73263752  0.19797899  0.64930185     0.37100
C2340       C  0.76903965  0.12171939  0.61016769     0.37100
N2341       N  0.72600043  0.21336759  0.65955636    -0.37700
N2342       N  0.77707852  0.10635647  0.60430594    -0.37700
N2343       N  0.77579919  0.21251743  0.59443542    -0.37100
N2344       N  0.72151940  0.10724665  0.65141626    -0.37100
C2345       C  0.66462944  0.72749740  0.79460316    -0.03800
C2346       C  0.68235077  0.73796239  0.78265867    -0.00900
C2347       C  0.68273516  0.75946830  0.78199221     0.04100
C2348       C  0.66541161  0.77070631  0.79334015    -0.03800
C2349       C  0.64710907  0.76021648  0.80141669    -0.00900
C2350       C  0.64671588  0.73871922  0.80197181     0.04100
C2351       C  0.70067757  0.72674274  0.77326296     0.38700
C2352       C  0.62857864  0.77155773  0.80880058     0.38700
C2353       C  0.62773573  0.72816918  0.80952518     0.37100
C2354       C  0.70143556  0.76992163  0.77186936     0.37100
N2355       N  0.61251586  0.71985119  0.81527643    -0.37700
N2356       N  0.71631742  0.77829394  0.76376256    -0.37700
N2357       N  0.61386275  0.78071289  0.81458040    -0.37100
N2358       N  0.71530818  0.71782796  0.76569150    -0.37100
C2359       C  0.83751003  0.72743120  0.96052786    -0.03800
C2360       C  0.85501255  0.73818314  0.94821477    -0.00900
C2361       C  0.85487341  0.75965598  0.94600921     0.04100
C2362       C  0.83746269  0.77081910  0.95711013    -0.03800
C2363       C  0.82047043  0.76018615  0.97201761    -0.00900
C2364       C  0.82049974  0.73864408  0.97378394     0.04100
C2365       C  0.87350051  0.72722456  0.93871888     0.38700
C2366       C  0.80236468  0.77125098  0.98341404     0.38700
C2367       C  0.80256475  0.72815841  0.98791042     0.37100
C2368       C  0.87287218  0.77024752  0.93246506     0.37100
N2369       N  0.78824730  0.71990580  0.99932574    -0.37700
N2370       N  0.88716414  0.77870852  0.92149928    -0.37700
N2371       N  0.78787213  0.78002634  0.99242019    -0.37100
N2372       N  0.88826842  0.71847405  0.93135719    -0.37100
C2373       C  0.77244529  0.65903469  0.89748822    -0.03800
C2374       C  0.76180269  0.64083692  0.88970885    -0.00900
C2375       C  0.74226554  0.64156555  0.87300267     0.04100
C2376       C  0.73318117  0.66054866  0.86429183    -0.03800
C2377       C  0.74400984  0.67874543  0.87204514    -0.00900
C2378       C  0.76359636  0.67794939  0.88824974     0.04100
C2379       C  0.77108714  0.62135610  0.89835689     0.38700
C2380       C  0.73516330  0.69839947  0.86312300     0.38700
C2381       C  0.77455912  0.69669754  0.89629467     0.37100
C2382       C  0.73118203  0.62276512  0.86649609     0.37100
N2383       N  0.78342849  0.71154182  0.90278868    -0.37700
N2384       N  0.72233776  0.60774200  0.86150568    -0.37700
N2385       N  0.72820704  0.71415885  0.85633566    -0.37100
N2386       N  0.77846634  0.60579926  0.90522029    -0.37100
C2387       C  0.47426663  0.41388956  0.92538464    -0.03800
C2388       C  0.48607941  0.41519270  0.89175950    -0.00900
C2389       C  0.50755069  0.41568416  0.89384500     0.04100
C2390       C  0.51745858  0.41529755  0.92964962    -0.03800
C2391       C  0.50556665  0.41479886  0.96332881    -0.00900
C2392       C  0.48417508  0.41378543  0.96120865     0.04100
C2393       C  0.47620463  0.41564902  0.85481541     0.38700
C2394       C  0.51517816  0.41667117  0.00045345     0.38700
C2395       C  0.47238202  0.41368255  0.99628145     0.37100
C2396       C  0.51937243  0.41622923  0.85891481     0.37100
N2397       N  0.46303043  0.41360109  0.02426497    -0.37700
N2398       N  0.52874133  0.41670727  0.83097340    -0.37700
N2399       N  0.52272626  0.41837546  0.03008574    -0.37100
N2400       N  0.46834164  0.41610915  0.82533155    -0.37100
C2401       C  0.52291790  0.58450776  0.57976079    -0.03800
C2402       C  0.51159246  0.58106755  0.61343991    -0.00900
C2403       C  0.49010405  0.58060097  0.61232781     0.04100
C2404       C  0.47967386  0.58387588  0.57759750    -0.03800
C2405       C  0.49106877  0.58739290  0.54392259    -0.00900
C2406       C  0.51250980  0.58739479  0.54492400     0.04100
C2407       C  0.52200358  0.57826251  0.64949360     0.38700
C2408       C  0.48085665  0.58995133  0.50755007     0.38700
C2409       C  0.52382051  0.58893454  0.50942674     0.37100
C2410       C  0.47880462  0.57705818  0.64724094     0.37100
N2411       N  0.53283129  0.58994398  0.98112680    -0.37700
N2412       N  0.46989814  0.57414857  0.67519075    -0.37700
N2413       N  0.47278893  0.59201803  0.97851479    -0.37100
N2414       N  0.53029689  0.57599137  0.67824933    -0.37100
C2415       C  0.61833039  0.61445315  0.98158646    -0.03800
C2416       C  0.62519086  0.60311020  0.94978516    -0.00900
C2417       C  0.63520256  0.61291984  0.91936149     0.04100
C2418       C  0.63837879  0.63428860  0.92020166    -0.03800
C2419       C  0.63116887  0.64565477  0.95186770    -0.00900
C2420       C  0.62128941  0.63574893  0.98245175     0.04100
C2421       C  0.62145371  0.58130171  0.94774825     0.38700
C2422       C  0.63457976  0.66746587  0.95402576     0.38700
C2423       C  0.61506506  0.64737345  0.51573027     0.37100
C2424       C  0.64173418  0.60086976  0.88679662     0.37100
N2425       N  0.61015194  0.65652926  0.54242854    -0.37700
N2426       N  0.64697557  0.59117548  0.86099537    -0.37700
N2427       N  0.63724390  0.68486903  0.95595043    -0.37100
N2428       N  0.61845535  0.56393855  0.94622157    -0.37100
C2429       C  0.64202603  0.62660140  0.73282753    -0.03800
C2430       C  0.62288557  0.61736013  0.73983269    -0.00900
C2431       C  0.61259172  0.60680293  0.71044076     0.04100
C2432       C  0.62155030  0.60474818  0.67399134    -0.03800
C2433       C  0.64124823  0.61281371  0.66770655    -0.00900
C2434       C  0.65128335  0.62393210  0.69670867     0.04100
C2435       C  0.61399047  0.61802504  0.77774215     0.38700
C2436       C  0.65098863  0.61041301  0.63080596     0.38700
C2437       C  0.67074353  0.63341333  0.68851662     0.37100
C2438       C  0.59300210  0.59749537  0.71823679     0.37100
N2439       N  0.68623610  0.64101059  0.68188176    -0.37700
N2440       N  0.57741922  0.59006569  0.72478386    -0.37700
N2441       N  0.65883010  0.60840587  0.60147614    -0.37100
N2442       N  0.60696612  0.61843986  0.80801465    -0.37100
C2443       C  0.58913459  0.51975697  0.52564793    -0.03800
C2444       C  0.57050982  0.50924209  0.52254393    -0.00900
C2445       C  0.56969350  0.49008463  0.50429348     0.04100
C2446       C  0.58757627  0.48120203  0.98903757    -0.03800
C2447       C  0.60622602  0.49187739  0.99200103    -0.00900
C2448       C  0.60696991  0.51109057  0.01028087     0.04100
C2449       C  0.55222200  0.51798326  0.53901489     0.38700
C2450       C  0.62483570  0.48276022  0.97783629     0.38700
C2451       C  0.62610633  0.52198012  0.01334013     0.37100
C2452       C  0.55027953  0.47970432  0.50068104     0.37100
N2453       N  0.64137370  0.53065746  0.01587882    -0.37700
N2454       N  0.53483417  0.47137493  0.49781927    -0.37700
N2455       N  0.63972640  0.47547458  0.96672325    -0.37100
N2456       N  0.53770626  0.52493129  0.55241767    -0.37100
C2457       C  0.97351343  0.41091119  0.82373481    -0.03800
C2458       C  0.98462270  0.40341011  0.79199434    -0.00900
C2459       C  0.00607409  0.40341341  0.79228270     0.04100
C2460       C  0.01689223  0.41106886  0.82413551    -0.03800
C2461       C  0.00585474  0.41858690  0.85584957    -0.00900
C2462       C  0.98434498  0.41845235  0.85570674     0.04100
C2463       C  0.97417325  0.39674645  0.75772836     0.38700
C2464       C  0.01656818  0.42629231  0.88901624     0.38700
C2465       C  0.97348179  0.42594974  0.88894531     0.37100
C2466       C  0.01689297  0.39657224  0.75842381     0.37100
N2467       N  0.96491236  0.43200816  0.91546324    -0.37700
N2468       N  0.02537667  0.39116559  0.73132458    -0.37700
N2469       N  0.02510805  0.43252585  0.91544069    -0.37100
N2470       N  0.96601465  0.39147827  0.73018412    -0.37100
C2471       C  0.97976769  0.58042840  0.68139774    -0.03800
C2472       C  0.99162036  0.58268936  0.71480706    -0.00900
C2473       C  0.01301504  0.58178904  0.71284610     0.04100
C2474       C  0.02294469  0.57911877  0.67738505    -0.03800
C2475       C  0.01118215  0.57667837  0.64402339    -0.00900
C2476       C  0.98970238  0.57716631  0.64601678     0.04100
C2477       C  0.98189040  0.58498946  0.75177445     0.38700
C2478       C  0.02119704  0.57422592  0.60741796     0.38700
C2479       C  0.97792235  0.57475560  0.61136703     0.37100
C2480       C  0.02475155  0.58241570  0.74786835     0.37100
N2481       N  0.96857455  0.57273784  0.58367558    -0.37700
N2482       N  0.03406974  0.58270551  0.77582717    -0.37700
N2483       N  0.02930686  0.57230830  0.57833000    -0.37100
N2484       N  0.97423522  0.58682631  0.78131393    -0.37100
C2485       C  0.88533336  0.61156804  0.78876303    -0.03800
C2486       C  0.89635438  0.62488295  0.81302155    -0.00900
C2487       C  0.88677766  0.63396966  0.84480546     0.04100
C2488       C  0.86596861  0.63033265  0.85222353    -0.03800
C2489       C  0.85498586  0.61686751  0.82833599    -0.00900
C2490       C  0.86461673  0.60745228  0.79702597     0.04100
C2491       C  0.91748946  0.62967865  0.80520364     0.38700
C2492       C  0.83359088  0.61281317  0.83539724     0.38700
C2493       C  0.85308199  0.59300541  0.77418047     0.37100
C2494       C  0.89871271  0.64639937  0.87080366     0.37100
N2495       N  0.84375972  0.58154282  0.75618306    -0.37700
N2496       N  0.90832068  0.65616327  0.89156280    -0.37700
N2497       N  0.81656084  0.60944989  0.84099587    -0.37100
N2498       N  0.93436710  0.63360069  0.79924718    -0.37100
C2499       C  0.86204231  0.62821572  0.53866929    -0.03800
C2500       C  0.85120678  0.62145514  0.57124588    -0.00900
C2501       C  0.86128662  0.61057311  0.60038775     0.04100
C2502       C  0.88229503  0.60633692  0.59740263    -0.03800
C2503       C  0.89307004  0.61276676  0.56476715    -0.00900
C2504       C  0.88305791  0.62355353  0.53554875     0.04100
C2505       C  0.82986573  0.62644156  0.57589527     0.38700
C2506       C  0.91448986  0.60787166  0.56074729     0.38700
C2507       C  0.89453261  0.62937294  0.00189420     0.37100
C2508       C  0.85020432  0.60469411  0.63446608     0.37100
N2509       N  0.90380405  0.63400210  0.97520645    -0.37700
N2510       N  0.84139099  0.60008496  0.66170867    -0.37700
N2511       N  0.93155737  0.60398472  0.55745502    -0.37100
N2512       N  0.81284982  0.63042785  0.57972085    -0.37100
C2513       C  0.90592018  0.51626379  0.73400533    -0.03800
C2514       C  0.92187970  0.50249036  0.72658247    -0.00900
C2515       C  0.92149132  0.48279494  0.74251933     0.04100
C2516       C  0.90521212  0.47675773  0.76651988    -0.03800
C2517       C  0.88943166  0.49076109  0.77453077    -0.00900
C2518       C  0.88971448  0.51036725  0.75802173     0.04100
C2519       C  0.93939225  0.50905016  0.70450387     0.38700
C2520       C  0.87274907  0.48503033  0.79940092     0.38700
C2521       C  0.87311798  0.52440194  0.76518909     0.37100
C2522       C  0.93853173  0.46919289  0.73586203     0.37100
N2523       N  0.85986772  0.53560226  0.77073419    -0.37700
N2524       N  0.95213198  0.45836193  0.73068488    -0.37700
N2525       N  0.85948217  0.48057227  0.81944093    -0.37100
N2526       N  0.95341156  0.51440908  0.68722772    -0.37100
C2527       C  0.65951739  0.22842265  0.70148071    -0.03800
C2528       C  0.65726107  0.23910080  0.66665774    -0.00900
C2529       C  0.65649159  0.26055084  0.66640518     0.04100
C2530       C  0.65809947  0.27165223  0.70090234    -0.03800
C2531       C  0.65962294  0.26102533  0.73576231    -0.00900
C2532       C  0.66013911  0.23951245  0.73609539     0.04100
C2533       C  0.65658251  0.22820103  0.63056684     0.38700
C2534       C  0.66013373  0.27223122  0.77145732     0.38700
C2535       C  0.66048079  0.22885300  0.77226338     0.37100
C2536       C  0.65502839  0.27113641  0.63015499     0.37100
N2537       N  0.66055861  0.22046913  0.80125353    -0.37700
N2538       N  0.65381901  0.27953730  0.60126665    -0.37700
N2539       N  0.66052248  0.28129104  0.79979588    -0.37100
N2540       N  0.65597602  0.21963287  0.60170500    -0.37100
C2541       C  0.63559008  0.36861783  0.78717013    -0.03800
C2542       C  0.61644328  0.36163573  0.80030453    -0.00900
C2543       C  0.60574059  0.37251763  0.82869085     0.04100
C2544       C  0.61403696  0.39050354  0.84475698    -0.03800
C2545       C  0.63307427  0.39764243  0.83131740    -0.00900
C2546       C  0.64388738  0.38663166  0.80305869     0.04100
C2547       C  0.60786227  0.34282015  0.78549461     0.38700
C2548       C  0.64180996  0.41616686  0.84690816     0.38700
C2549       C  0.66340457  0.39416265  0.78981680     0.37100
C2550       C  0.58577854  0.36540199  0.84044807     0.37100
N2551       N  0.67901132  0.40010024  0.77932903    -0.37700
N2552       N  0.56986165  0.35973960  0.84976166    -0.37700
N2553       N  0.64874094  0.43101508  0.85915873    -0.37100
N2554       N  0.60097471  0.32782063  0.77381203    -0.37100
C2555       C  0.63524813  0.36706150  0.59477533    -0.03800
C2556       C  0.64587627  0.37227780  0.56123151    -0.00900
C2557       C  0.63557807  0.38182803  0.53090428     0.04100
C2558       C  0.61465983  0.38665152  0.53432116    -0.03800
C2559       C  0.60409317  0.38135378  0.56809635    -0.00900
C2560       C  0.61435157  0.37152069  0.59807091     0.04100
C2561       C  0.66729077  0.36731721  0.55746850     0.38700
C2562       C  0.58285294  0.38672563  0.57297186     0.38700
C2563       C  0.60357977  0.36675514  0.63314629     0.37100
C2564       C  0.64642129  0.38599904  0.99568549     0.37100
N2565       N  0.59513456  0.36295823  0.66122407    -0.37700
N2566       N  0.65500959  0.38929071  0.96753403    -0.37700
N2567       N  0.56592668  0.39099317  0.57710028    -0.37100
N2568       N  0.68436389  0.36339284  0.55438278    -0.37100
C2569       C  0.83486557  0.26817225  0.54970449    -0.03800
C2570       C  0.83871317  0.25773475  0.51510813    -0.00900
C2571       C  0.83939625  0.23620743  0.51448278     0.04100
C2572       C  0.83606413  0.22509699  0.54832767    -0.03800
C2573       C  0.83206154  0.23552697  0.58276875    -0.00900
C2574       C  0.83172238  0.25692453  0.58358359     0.04100
C2575       C  0.84262583  0.26908113  0.98044026     0.38700
C2576       C  0.82707262  0.22421114  0.61713176     0.38700
C2577       C  0.82727515  0.26727661  0.61929455     0.37100
C2578       C  0.84400532  0.22548882  0.97930737     0.37100
N2579       N  0.82379987  0.27548751  0.64780088    -0.37700
N2580       N  0.84774091  0.21686592  0.95134603    -0.37700
N2581       N  0.82294112  0.21514170  0.64433169    -0.37100
N2582       N  0.84582507  0.27805238  0.95269671    -0.37100
C2583       C  0.87382579  0.38919172  0.90946955    -0.03800
C2584       C  0.86111086  0.37232878  0.90141747    -0.00900
C2585       C  0.85094237  0.36203226  0.93112312     0.04100
C2586       C  0.85357359  0.36830966  0.96932614    -0.03800
C2587       C  0.86620256  0.38529662  0.97742585    -0.00900
C2588       C  0.87597586  0.39592009  0.94751175     0.04100
C2589       C  0.85844599  0.36550781  0.86234820     0.38700
C2590       C  0.86933099  0.39180968  0.51657539     0.38700
C2591       C  0.88890226  0.41326212  0.95607805     0.37100
C2592       C  0.83875093  0.34417228  0.92244088     0.37100
N2593       N  0.89918399  0.42711979  0.96289530    -0.37700
N2594       N  0.82911615  0.32986699  0.91555600    -0.37700
N2595       N  0.87199128  0.39692867  0.54778268    -0.37100
N2596       N  0.85642560  0.36002686  0.83120035    -0.37100
C2597       C  0.85722768  0.36339543  0.65758684    -0.03800
C2598       C  0.84570662  0.37108016  0.68840985    -0.00900
C2599       C  0.85547141  0.38076051  0.71926435     0.04100
C2600       C  0.87685395  0.38342206  0.71910672    -0.03800
C2601       C  0.88829314  0.37608494  0.68767305    -0.00900
C2602       C  0.87855817  0.36583610  0.65739764     0.04100
C2603       C  0.82374854  0.36862575  0.68896365     0.38700
C2604       C  0.90998408  0.37991384  0.68518061     0.38700
C2605       C  0.89051639  0.35859281  0.62524809     0.37100
C2606       C  0.84335128  0.38741951  0.75156988     0.37100
N2607       N  0.90013367  0.35285081  0.59974714    -0.37700
N2608       N  0.83354991  0.39266165  0.77719168    -0.37700
N2609       N  0.92725872  0.38300070  0.68271589    -0.37100
N2610       N  0.80624460  0.36679112  0.68936308    -0.37100
C2611       C  0.76514657  0.33555747  0.61045301    -0.03800
C2612       C  0.75564443  0.35446767  0.61805737    -0.00900
C2613       C  0.73644147  0.35512855  0.63613519     0.04100
C2614       C  0.72655646  0.33690584  0.64688950    -0.03800
C2615       C  0.73616680  0.31800035  0.63985477    -0.00900
C2616       C  0.75531009  0.31732085  0.62166924     0.04100
C2617       C  0.76587405  0.37337250  0.60852109     0.38700
C2618       C  0.72657439  0.29916636  0.65216572     0.38700
C2619       C  0.76461031  0.29771295  0.61372792     0.37100
C2620       C  0.72658657  0.37459894  0.64257310     0.37100
N2621       N  0.77199645  0.28206728  0.60743560    -0.37700
N2622       N  0.71868173  0.39010250  0.64772852    -0.37700
N2623       N  0.71891088  0.28419287  0.66206315    -0.37100
N2624       N  0.77398910  0.38850936  0.60109752    -0.37100
loop_ 
_geom_bond_atom_site_label_1 
_geom_bond_atom_site_label_2 
_geom_bond_distance 
_geom_bond_site_symmetry_2 
_ccdc_geom_bond_type 
O1            C4   1.263       .  A
O1           Cd6   2.427       .  S
C2           O11   1.266       .  A
C2            O7   1.266       .  A
C2         C1285   1.480       .  S
O3         C1321   1.269       .  A
O3           Cd6   2.493       .  S
C4           O12   1.267       .  A
C4         C1257   1.484       .  S
C5           O10   1.269       .  A
C5            O8   1.263       .  A
C5         C1299   1.491       .  S
Cd6          O13   2.446       .  S
Cd6          O12   2.492       .  S
Cd6          O11   2.430       .  S
Cd6           O7   2.442       .  S
Cd6          O10   2.501       .  S
Cd6           O8   2.447       .  S
C9         O1315   1.269       .  A
C9         O1325   1.262       .  A
C9         C1274   1.488       .  S
O13        C1321   1.262       .  A
O14          C17   1.265       .  A
O14         Cd19   2.430       .  S
C15          O24   1.267       .  A
C15          O20   1.264       .  A
C15        C1218   1.487       .  S
O16          C22   1.271       .  A
O16         Cd19   2.491       .  S
C17          O25   1.266       .  A
C17        C1243   1.476       .  S
C18          O23   1.269       .  A
C18          O21   1.262       .  A
C18        C1229   1.495       .  S
Cd19         O26   2.423       .  S
Cd19         O25   2.460       .  S
Cd19         O24   2.465       .  S
Cd19         O20   2.437       .  S
Cd19         O23   2.516       .  S
Cd19         O21   2.444       .  S
C22          O26   1.263       .  A
C22        C1302   1.487       .  S
O27          C30   1.267       .  A
O27         Cd32   2.463       .  S
C28          O37   1.265       .  A
C28          O33   1.267       .  A
C28        C1159   1.493       .  S
O29          C35   1.267       .  A
O29         Cd32   2.485       .  S
C30          O38   1.265       .  A
C30        C1173   1.492       .  S
C31          O36   1.267       .  A
C31          O34   1.266       .  A
C31        C1190   1.488       .  S
Cd32         O39   2.448       .  S
Cd32         O38   2.438       .  S
Cd32         O37   2.473       .  S
Cd32         O33   2.466       .  S
Cd32         O36   2.480       .  S
Cd32         O34   2.458       .  S
C35          O39   1.261       .  A
C35        C1201   1.481       .  S
O40          C43   1.266       .  A
O40         Cd45   2.455       .  S
C41          O50   1.265       .  A
C41          O46   1.264       .  A
C41        C1145   1.498       .  S
O42          C48   1.269       .  A
O42         Cd45   2.488       .  S
C43          O51   1.266       .  A
C43        C1288   1.490       .  S
C44          O49   1.267       .  A
C44          O47   1.262       .  A
C44        C1271   1.487       .  S
Cd45         O52   2.432       .  S
Cd45         O51   2.449       .  S
Cd45         O50   2.483       .  S
Cd45         O46   2.459       .  S
Cd45         O49   2.509       .  S
Cd45         O47   2.444       .  S
C48          O52   1.264       .  A
C48        C1204   1.489       .  S
O53          C56   1.268       .  A
O53         Cd58   2.448       .  S
C54          O63   1.263       .  A
C54          O59   1.267       .  A
C54        C2415   1.484   1_554  S
O55          C61   1.265       .  A
O55         Cd58   2.487       .  S
C56          O64   1.268       .  A
C56        C1089   1.490       .  S
C57          O62   1.269       .  A
C57          O60   1.262       .  A
C57        C1131   1.481       .  S
Cd58         O65   2.491       .  S
Cd58         O64   2.464       .  S
Cd58         O63   2.430       .  S
Cd58         O59   2.476       .  S
Cd58         O62   2.496       .  S
Cd58         O60   2.441       .  S
C61          O65   1.264       .  A
C61        C1120   1.493       .  S
O66          C69   1.266       .  A
O66         Cd71   2.457       .  S
C67          O76   1.266       .  A
C67          O72   1.265       .  A
C67        C1078   1.493       .  S
O68          C74   1.269       .  A
O68         Cd71   2.510       .  S
C69          O77   1.266       .  A
C69        C2558   1.488       .  S
C70          O75   1.268       .  A
C70          O73   1.263       .  A
C70        C1232   1.497       .  S
Cd71         O78   2.437       .  S
Cd71         O77   2.449       .  S
Cd71         O76   2.486       .  S
Cd71         O72   2.456       .  S
Cd71         O75   2.511       .  S
Cd71         O73   2.449       .  S
C74          O78   1.263       .  A
C74        C1134   1.491       .  S
O79          C82   1.265       .  A
O79         Cd84   2.447       .  S
C80          O89   1.264       .  A
C80          O85   1.267       .  A
C80        C1176   1.486       .  S
O81          C87   1.268   1_556  A
O81       Cd1396   2.491       .  S
C82          O90   1.268       .  A
C82        C1047   1.498       .  S
C83          O88   1.269       .  A
C83          O86   1.262       .  A
C83        C1061   1.481       .  S
Cd84         O91   2.445       .  S
Cd84         O90   2.493       .  S
Cd84         O89   2.434       .  S
Cd84         O85   2.455       .  S
Cd84         O88   2.495       .  S
Cd84         O86   2.430       .  S
Cd84       O1393   2.491       .  S
C87        O1403   1.264   1_554  A
C87        C1187   1.498       .  S
O91        C1399   1.264       .  A
O92          C95   1.266       .  A
O92         Cd97   2.479       .  S
C93         O102   1.266       .  A
C93          O98   1.266       .  A
C93        C1033   1.491       .  S
O94         C100   1.267       .  A
O94         Cd97   2.498       .  S
C95         O103   1.264       .  A
C95        C1106   1.493       .  S
C96         O101   1.268       .  A
C96          O99   1.264       .  A
C96        C1117   1.496       .  S
Cd97        O104   2.459       .  S
Cd97        O103   2.447       .  S
Cd97        O102   2.480       .  S
Cd97         O98   2.464       .  S
Cd97        O101   2.493       .  S
Cd97         O99   2.454       .  S
C100        O104   1.264       .  A
C100       C1064   1.491       .  S
O105        C108   1.265       .  A
O105       Cd110   2.425       .  S
C106        O115   1.268       .  A
C106        O111   1.267       .  A
C106        C991   1.482       .  S
O107        C113   1.270       .  A
O107       Cd110   2.497       .  S
C108        O116   1.266       .  A
C108       C1260   1.478       .  S
C109        O114   1.269       .  A
C109        O112   1.261   1_556  A
C109       C2317   1.489       .  S
Cd110       O117   2.418       .  S
Cd110       O116   2.468       .  S
Cd110       O115   2.438       .  S
Cd110       O111   2.434       .  S
Cd110       O114   2.499   1_554  S
Cd110       O112   2.417       .  S
C113        O117   1.262       .  A
C113       C1022   1.486       .  S
O118        C121   1.263       .  A
O118       Cd123   2.437       .  S
C119        O128   1.265       .  A
C119        O124   1.264       .  A
C119        C966   1.475       .  S
O120        C126   1.268       .  A
O120       Cd123   2.501       .  S
C121        O129   1.268       .  A
C121       C1215   1.490       .  S
C122        O127   1.268       .  A
C122        O125   1.262       .  A
C122        C977   1.488       .  S
Cd123       O130   2.431       .  S
Cd123       O129   2.490       .  S
Cd123       O128   2.443       .  S
Cd123       O124   2.435       .  S
Cd123       O127   2.504       .  S
Cd123       O125   2.439       .  S
C126        O130   1.263       .  A
C126       C1019   1.487       .  S
O131        C134   1.266       .  A
O131       Cd136   2.433       .  S
C132        O141   1.264       .  A
C132        O137   1.265       .  A
C132        C994   1.487       .  S
O133        C139   1.269       .  A
O133       Cd136   2.478       .  S
C134        O142   1.267       .  A
C134        C935   1.486       .  S
C135        O140   1.268       .  A
C135        O138   1.263       .  A
C135       C1008   1.483       .  S
Cd136       O143   2.413       .  S
Cd136       O142   2.475       .  S
Cd136       O141   2.446       .  S
Cd136       O137   2.447       .  S
Cd136       O140   2.475       .  S
Cd136       O138   2.422       .  S
C139        O143   1.263       .  A
C139        C952   1.479       .  S
O144        C147   1.264       .  A
O144       Cd149   2.440       .  S
C145        O154   1.266       .  A
C145        O150   1.267       .  A
C145        C910   1.484       .  S
O146        C152   1.269       .  A
O146       Cd149   2.480       .  S
C147        O155   1.266       .  A
C147        C896   1.484       .  S
C148        O153   1.268       .  A
C148        O151   1.262       .  A
C148        C924   1.493       .  S
Cd149       O156   2.430       .  S
Cd149       O155   2.475       .  S
Cd149       O154   2.450       .  S
Cd149       O150   2.445       .  S
Cd149       O153   2.514       .  S
Cd149       O151   2.439       .  S
C152        O156   1.262       .  A
C152        C949   1.486       .  S
O157        C160   1.265       .  A
O157       Cd162   2.442       .  S
C158        O167   1.267       .  A
C158        O163   1.268       .  A
C158       C2275   1.487       .  S
O159        C165   1.270       .  A
O159       Cd162   2.480       .  S
C160        O168   1.266       .  A
C160        C865   1.487       .  S
C161        O166   1.270       .  A
C161        O164   1.262       .  A
C161        C980   1.497       .  S
Cd162       O169   2.449       .  S
Cd162       O168   2.478       .  S
Cd162       O167   2.434       .  S
Cd162       O163   2.431       .  S
Cd162       O166   2.501       .  S
Cd162       O164   2.432       .  S
C165        O169   1.263       .  A
C165        C879   1.510       .  S
O170        C173   1.264       .  A
O170       Cd175   2.460       .  S
C171        O180   1.266       .  A
C171        O176   1.265       .  A
C171       C2149   1.486   1_554  S
O172        C178   1.268       .  A
O172       Cd175   2.479       .  S
C173        O181   1.264       .  A
C173        C823   1.483       .  S
C174        O179   1.266       .  A
C174        O177   1.261       .  A
C174        C854   1.490       .  S
Cd175       O182   2.441       .  S
Cd175       O181   2.462       .  S
Cd175       O180   2.434       .  S
Cd175       O176   2.436       .  S
Cd175       O179   2.480       .  S
Cd175       O177   2.440       .  S
C178        O182   1.265       .  A
C178        C882   1.488       .  S
O183        C186   1.265       .  A
O183       Cd188   2.469       .  S
C184        O193   1.266       .  A
C184        O189   1.267       .  A
C184        C907   1.492       .  S
O185        C191   1.268       .  A
O185       Cd188   2.495       .  S
C186        O194   1.265       .  A
C186       C1050   1.496       .  S
C187        O192   1.268   1_554  A
C187       O1502   1.264   1_554  A
C187        C921   1.492       .  S
Cd188       O195   2.444       .  S
Cd188       O194   2.493       .  S
Cd188       O193   2.458       .  S
Cd188       O189   2.471       .  S
Cd188       O190   2.461       .  S
Cd188      O1504   2.503       .  S
O190       C1499   1.264       .  A
C191        O195   1.263       .  A
C191        C809   1.489       .  S
O192      Cd1500   2.503       .  S
O196        C199   1.265       .  A
O196       Cd201   2.443       .  S
C197        O206   1.264       .  A
C197        O202   1.266       .  A
C197        C840   1.477       .  S
O198        C204   1.268       .  A
O198       Cd201   2.492       .  S
C199        O207   1.267       .  A
C199       C1036   1.490       .  S
C200        O205   1.268       .  A
C200        O203   1.263       .  A
C200        C851   1.489       .  S
Cd201       O208   2.438       .  S
Cd201       O207   2.469       .  S
Cd201       O206   2.430       .  S
Cd201       O202   2.448       .  S
Cd201       O205   2.492       .  S
Cd201       O203   2.428       .  S
C204        O208   1.263       .  A
C204        C812   1.497       .  S
O209        C212   1.264       .  A
O209       Cd214   2.455       .  S
C210        O219   1.265       .  A
C210        O215   1.266       .  A
C210        C781   1.491       .  S
O211        C217   1.269       .  A
O211       Cd214   2.504       .  S
C212        O220   1.266       .  A
C212       C1148   1.495       .  S
C213        O218   1.270       .  A
C213        O216   1.264       .  A
C213        C770   1.501       .  S
Cd214       O221   2.436       .  S
Cd214       O220   2.483       .  S
Cd214       O219   2.434       .  S
Cd214       O215   2.444       .  S
Cd214       O218   2.511       .  S
Cd214       O216   2.437       .  S
C217        O221   1.262       .  A
C217        C795   1.495       .  S
O222        C225   1.263       .  A
O222       Cd227   2.446       .  S
C223        O232   1.265       .  A
C223        O228   1.264       .  A
C223        C742   1.486       .  S
O224        C230   1.269       .  A
O224       Cd227   2.494       .  S
C225        O233   1.267       .  A
C225       C1162   1.490       .  S
C226        O231   1.267       .  A
C226        O229   1.262       .  A
C226        C756   1.495       .  S
Cd227       O234   2.430       .  S
Cd227       O233   2.494       .  S
Cd227       O232   2.458       .  S
Cd227       O228   2.439       .  S
Cd227       O231   2.509       .  S
Cd227       O229   2.437       .  S
C230        O234   1.264       .  A
C230        C798   1.500       .  S
O235        C238   1.265       .  A
O235       Cd240   2.447       .  S
C236        O245   1.265       .  A
C236        O241   1.265       .  A
C236        C784   1.485       .  S
O237        C243   1.268       .  A
O237       Cd240   2.492       .  S
C238        O246   1.268       .  A
C238        C714   1.489       .  S
C239        O244   1.268   1_556  A
C239        O242   1.264   1_556  A
C239       C2079   1.497       .  S
Cd240       O247   2.435       .  S
Cd240       O246   2.480       .  S
Cd240       O245   2.447       .  S
Cd240       O241   2.442       .  S
Cd240       O244   2.498       .  S
Cd240       O242   2.450       .  S
C243        O247   1.262       .  A
C243        C728   1.486       .  S
O248        C251   1.266       .  A
O248       Cd253   2.461       .  S
C249        O258   1.264       .  A
C249        O254   1.267       .  A
C249        C686   1.486       .  S
O250        C256   1.269       .  A
O250       Cd253   2.491       .  S
C251        O259   1.267       .  A
C251        C672   1.494       .  S
C252        O257   1.268       .  A
C252        O255   1.264       .  A
C252        C700   1.492       .  S
Cd253       O260   2.432       .  S
Cd253       O259   2.479       .  S
Cd253       O258   2.458       .  S
Cd253       O254   2.449       .  S
Cd253       O257   2.498       .  S
Cd253       O255   2.461       .  S
C256        O260   1.263       .  A
C256        C725   1.484       .  S
O261        C264   1.265       .  A
O261       Cd266   2.461       .  S
C262        O271   1.265       .  A
C262        O267   1.267       .  A
C262        C739   1.475       .  S
O263        C269   1.269       .  A
O263       Cd266   2.499       .  S
C264        O272   1.266       .  A
C264        C641   1.493       .  S
C265        O270   1.269       .  A
C265       O1580   1.263       .  A
C265        C753   1.497   1_556  S
Cd266       O273   2.442       .  S
Cd266       O272   2.469       .  S
Cd266       O271   2.432       .  S
Cd266       O267   2.446       .  S
Cd266       O268   2.448       .  S
Cd266      O1582   2.496       .  S
O268       C1577   1.263       .  A
C269        O273   1.264       .  A
C269        C655   1.491       .  S
O270      Cd1578   2.496       .  S
O274        C277   1.265       .  A
O274       Cd279   2.451       .  S
C275        O284   1.267       .  A
C275        O280   1.265       .  A
C275        C599   1.488       .  S
O276        C282   1.268       .  A
O276       Cd279   2.500       .  S
C277        O285   1.265       .  A
C277        C630   1.491       .  S
C278        O283   1.269       .  A
C278        O281   1.263       .  A
C278        C658   1.491       .  S
Cd279       O286   2.452       .  S
Cd279       O285   2.454       .  S
Cd279       O284   2.476       .  S
Cd279       O280   2.446       .  S
Cd279       O283   2.505       .  S
Cd279       O281   2.446       .  S
C282        O286   1.263       .  A
C282        C613   1.496       .  S
O287        C290   1.267       .  A
O287       Cd292   2.441       .  S
C288        O297   1.267       .  A
C288        O293   1.265       .  A
C288       C1075   1.492       .  S
O289        C295   1.269       .  A
O289       Cd292   2.511       .  S
C290        O298   1.265       .  A
C290       C1995   1.478       .  S
C291        O296   1.270       .  A
C291        O294   1.262       .  A
C291        C585   1.483       .  S
Cd292       O299   2.441       .  S
Cd292       O298   2.433       .  S
Cd292       O297   2.481       .  S
Cd292       O293   2.447       .  S
Cd292       O296   2.496       .  S
Cd292       O294   2.412       .  S
C295        O299   1.263       .  A
C295        C697   1.490       .  S
O300        C303   1.266       .  A
O300       Cd305   2.457       .  S
C301        O310   1.265       .  A
C301        O306   1.265       .  A
C301       C1939   1.493   1_554  S
O302        C308   1.269       .  A
O302       Cd305   2.498       .  S
C303        O311   1.267       .  A
C303       C1092   1.493       .  S
C304        O309   1.270       .  A
C304        O307   1.264       .  A
C304        C616   1.495       .  S
Cd305       O312   2.418       .  S
Cd305       O311   2.481       .  S
Cd305       O310   2.459       .  S
Cd305       O306   2.430       .  S
Cd305       O309   2.493       .  S
Cd305       O307   2.429       .  S
C308        O312   1.261       .  A
C308        C588   1.482       .  S
O313        C316   1.267       .  A
O313       Cd318   2.455       .  S
C314        O323   1.268       .  A
C314        O319   1.265       .  A
C314        C644   1.493       .  S
O315        C321   1.268       .  A
O315       Cd318   2.508       .  S
C316        O324   1.265       .  A
C316        C543   1.481       .  S
C317        O322   1.269       .  A
C317       O1632   1.262   1_554  A
C317        C557   1.495       .  S
Cd318       O325   2.428       .  S
Cd318       O324   2.432       .  S
Cd318       O323   2.481       .  S
Cd318       O319   2.444       .  S
Cd318       O320   2.429       .  S
Cd318      O1634   2.505       .  S
O320       C1629   1.262       .  A
C321        O325   1.262       .  A
C321        C571   1.497       .  S
O322      Cd1630   2.505   1_554  S
O326        C329   1.265       .  A
O326       Cd331   2.440       .  S
C327        O336   1.267       .  A
C327        O332   1.263       .  A
C327        C602   1.491       .  S
O328        C334   1.268       .  A
O328       Cd331   2.503       .  S
C329        O337   1.266       .  A
C329        C518   1.476       .  S
C330        O335   1.268       .  A
C330        O333   1.264       .  A
C330        C529   1.498       .  S
Cd331       O338   2.452       .  S
Cd331       O337   2.453       .  S
Cd331       O336   2.496       .  S
Cd331       O332   2.436       .  S
Cd331       O335   2.499       .  S
Cd331       O333   2.450       .  S
C334        O338   1.261       .  A
C334        C574   1.498       .  S
O339        C342   1.265   1_554  A
O339       Cd344   2.453       .  S
C340        O349   1.266       .  A
C340        O345   1.266       .  A
C340        C826   1.492       .  S
O341        C347   1.268       .  A
O341       Cd344   2.493       .  S
C342        O350   1.264   1_556  A
C342       C1827   1.477       .  S
C343        O348   1.267       .  A
C343        O346   1.264       .  A
C343        C532   1.490       .  S
Cd344       O351   2.447       .  S
Cd344       O350   2.441       .  S
Cd344       O349   2.467       .  S
Cd344       O345   2.470       .  S
Cd344       O348   2.489       .  S
Cd344       O346   2.457       .  S
C347        O351   1.263       .  A
C347        C501   1.493       .  S
O352        C355   1.265       .  A
O352       Cd357   2.462       .  S
C353        O362   1.265       .  A
C353        O358   1.268       .  A
C353       C1788   1.481       .  S
O354        C360   1.266       .  A
O354       Cd357   2.480       .  S
C355        O363   1.265       .  A
C355        C868   1.488       .  S
C356        O361   1.268       .  A
C356        O359   1.262       .  A
C356        C504   1.501       .  S
Cd357       O364   2.462       .  S
Cd357       O363   2.464       .  S
Cd357       O362   2.410       .  S
Cd357       O358   2.475       .  S
Cd357       O361   2.514       .  S
Cd357       O359   2.435       .  S
C360        O364   1.263       .  A
C360        C487   1.497       .  S
O365        C368   1.266       .  A
O365       Cd370   2.448       .  S
C366        O375   1.268       .  A
C366        O371   1.264       .  A
C366        C711   1.490       .  S
O367        C373   1.268       .  A
O367       Cd370   2.503       .  S
C368        O376   1.265       .  A
C368        C431   1.480       .  S
C369       O1686   1.269       .  A
C369       O1684   1.262       .  A
C369        C448   1.491       .  S
Cd370       O377   2.444       .  S
Cd370       O376   2.437       .  S
Cd370       O375   2.490       .  S
Cd370       O371   2.442       .  S
Cd370       O374   2.505       .  S
Cd370       O372   2.435       .  S
O372       C1681   1.262       .  A
C373        O377   1.263       .  A
C373        C462   1.500       .  S
O374       C1681   1.269       .  A
O378        C381   1.264       .  A
O378       Cd383   2.449       .  S
C379        O388   1.264       .  A
C379        O384   1.265       .  A
C379        C473   1.489       .  S
O380        C386   1.265       .  A
O380       Cd383   2.501       .  S
C381        O389   1.267       .  A
C381        C669   1.492       .  S
C382        O387   1.269       .  A
C382        O385   1.264       .  A
C382        C459   1.493       .  S
Cd383       O390   2.474       .  S
Cd383       O389   2.493       .  S
Cd383       O388   2.441       .  S
Cd383       O384   2.468       .  S
Cd383       O387   2.490       .  S
Cd383       O385   2.445       .  S
C386        O390   1.264       .  A
C386        C490   1.497       .  S
O391        C394   1.265       .  A
O391       Cd396   2.460       .  S
C392        O401   1.267       .  A
C392        O397   1.265       .  A
C392        C893   1.490       .  S
O393        C399   1.270       .  A
O393       Cd396   2.496       .  S
C394        O402   1.264       .  A
C394        C546   1.487       .  S
C395        O400   1.267       .  A
C395        O398   1.263       .  A
C395        C560   1.490       .  S
Cd396       O403   2.436       .  S
Cd396       O402   2.448       .  S
Cd396       O401   2.489       .  S
Cd396       O397   2.438       .  S
Cd396       O400   2.498       .  S
Cd396       O398   2.446       .  S
C399        O403   1.264       .  A
C399        C417   1.496       .  S
O404        C407   1.266       .  A
O404       Cd409   2.460       .  S
C405        O414   1.266       .  A
C405        O410   1.263       .  A
C405        C938   1.485       .  S
O406        C412   1.268       .  A
O406       Cd409   2.493       .  S
C407        O415   1.265       .  A
C407        C434   1.489       .  S
C408        O413   1.267       .  A
C408        O411   1.263       .  A
C408        C445   1.491       .  S
Cd409       O416   2.440       .  S
Cd409       O415   2.445       .  S
Cd409       O414   2.486       .  S
Cd409       O410   2.430       .  S
Cd409       O413   2.499       .  S
Cd409       O411   2.443       .  S
C412        O416   1.264       .  A
C412        C420   1.494       .  S
C417        C418   1.419       .  A
C417        C422   1.414       .  A
C418        C419   1.414       .  A
C418        C423   1.452       .  S
C419        C420   1.414   1_565  A
C419        C426   1.452   1_565  S
C420        C421   1.418       .  A
C421        C422   1.413   1_545  A
C421        C424   1.453       .  S
C422        C425   1.451       .  S
C423        N430   1.158       .  T
C424        N429   1.158       .  T
C425        N427   1.157       .  T
C426        N428   1.158       .  T
C431        C432   1.412       .  A
C431        C436   1.411       .  A
C432        C433   1.410       .  A
C432        C437   1.452       .  S
C433        C434   1.417       .  A
C433        C440   1.452       .  S
C434        C435   1.417       .  A
C435        C436   1.409       .  A
C435        C438   1.452       .  S
C436        C439   1.453       .  S
C437        N444   1.158       .  T
C438        N443   1.158       .  T
C439        N441   1.157       .  T
C440        N442   1.157       .  T
C445        C446   1.417       .  A
C445        C450   1.413       .  A
C446        C447   1.412       .  A
C446        C451   1.452       .  S
C447        C448   1.412       .  A
C447        C454   1.451       .  S
C448        C449   1.418       .  A
C449        C450   1.413       .  A
C449       C1764   1.452       .  S
C450        C453   1.451       .  S
C451        N458   1.157       .  T
C452       C1761   1.452   1_554  S
C452        N457   1.158       .  T
C453        N455   1.158       .  T
C454        N456   1.157       .  T
C459        C460   1.416       .  A
C459        C464   1.412       .  A
C460        C461   1.414       .  A
C460        C465   1.452       .  S
C461        C462   1.417       .  A
C461        C468   1.451       .  S
C462        C463   1.421       .  A
C463        C464   1.413       .  A
C463        C466   1.452       .  S
C464        C467   1.452       .  S
C465        N472   1.158       .  T
C466        N471   1.158       .  T
C467        N469   1.157       .  T
C468        N470   1.158       .  T
C473        C474   1.418       .  A
C473        C478   1.416       .  A
C474        C475   1.413       .  A
C474        C479   1.452       .  S
C475        C476   1.412       .  A
C475        C482   1.451       .  S
C476       C1665   1.481       .  S
C476        C477   1.412       .  A
C477        C478   1.406       .  A
C477        C480   1.454       .  S
C478        C481   1.452       .  S
C479        N486   1.158       .  T
C480        N485   1.157       .  T
C481        N483   1.157       .  T
C482       N1796   1.157   1_554  T
N484       C1794   1.157       .  T
C487        C488   1.418       .  A
C487        C492   1.416       .  A
C488        C489   1.413       .  A
C488        C493   1.453       .  S
C489        C490   1.415       .  A
C489        C496   1.452       .  S
C490        C491   1.417       .  A
C491        C492   1.415       .  A
C491        C494   1.450       .  S
C492        C495   1.452       .  S
C493        N500   1.157       .  T
C494        N499   1.157       .  T
C495        N497   1.158       .  T
C496        N498   1.157       .  T
C501        C502   1.412       .  A
C501       C1818   1.416   1_554  A
C502        C503   1.412   1_565  A
C502        C507   1.452       .  S
C503       C1816   1.421   1_554  A
C503        C510   1.453       .  S
C504        C505   1.418       .  A
C504       C1815   1.421       .  A
C505        C506   1.415   1_545  A
C505        C508   1.451       .  S
C506       C1813   1.416       .  A
C506        C509   1.453       .  S
C507        N514   1.158       .  T
C508        N513   1.158       .  T
C509        N511   1.157       .  T
C510        N512   1.157       .  T
C515       C1654   1.477       .  S
C515        C516   1.413       .  A
C515        C520   1.412       .  A
C516        C517   1.409       .  A
C516        C521   1.452       .  S
C517        C518   1.411       .  A
C517        C524   1.450       .  S
C518        C519   1.413       .  A
C519        C520   1.408       .  A
C519        C522   1.452       .  S
C520       C1835   1.452       .  S
C521        N528   1.157       .  T
C522        N527   1.157       .  T
C523       C1832   1.452   1_554  S
C523        N525   1.157       .  T
C524        N526   1.157       .  T
C529        C530   1.417       .  A
C529        C534   1.420       .  A
C530        C531   1.415       .  A
C530        C535   1.451       .  S
C531        C532   1.414       .  A
C531        C538   1.452       .  S
C532        C533   1.411       .  A
C533        C534   1.411       .  A
C533        C536   1.453       .  S
C534        C537   1.452       .  S
C535        N542   1.157       .  T
C536        N541   1.157       .  T
C537        N539   1.157       .  T
C538        N540   1.158       .  T
C543        C544   1.413       .  A
C543        C548   1.413       .  A
C544        C545   1.410       .  A
C544        C549   1.452       .  S
C545        C546   1.416       .  A
C545        C552   1.452       .  S
C546        C547   1.416       .  A
C547        C548   1.408       .  A
C547        C550   1.452       .  S
C548        C551   1.453       .  S
C549        N556   1.157       .  T
C550        N555   1.157       .  T
C551        N553   1.157       .  T
C552        N554   1.157       .  T
C557        C558   1.419       .  A
C557        C562   1.416       .  A
C558        C559   1.410       .  A
C558        C563   1.453       .  S
C559        C560   1.413       .  A
C559        C566   1.453       .  S
C560        C561   1.415       .  A
C561        C562   1.415       .  A
C561        C564   1.451       .  S
C562        C565   1.451       .  S
C563        N570   1.157       .  T
C564        N569   1.157       .  T
C565        N567   1.157       .  T
C566        N568   1.157       .  T
C571        C572   1.419       .  A
C571        C576   1.415       .  A
C572        C573   1.411       .  A
C572        C577   1.454       .  S
C573        C574   1.415       .  A
C573        C580   1.452       .  S
C574        C575   1.420       .  A
C575        C576   1.415       .  A
C575        C578   1.453       .  S
C576        C579   1.451       .  S
C577        N584   1.157       .  T
C578        N583   1.157       .  T
C579        N581   1.158       .  T
C580        N582   1.158       .  T
C585        C586   1.414       .  A
C585        C590   1.412       .  A
C586       C1899   1.408       .  A
C586        C591   1.453       .  S
C587        C588   1.414       .  A
C587       C1898   1.408   1_554  A
C587        C594   1.453       .  S
C588        C589   1.413       .  A
C589       C1902   1.413   1_554  A
C589        C592   1.450       .  S
C590       C1901   1.413       .  A
C590        C593   1.450       .  S
C591        N598   1.158       .  T
C592        N597   1.157       .  T
C593        N595   1.157       .  T
C594        N596   1.158       .  T
C599        C600   1.414       .  A
C599        C604   1.415       .  A
C600        C601   1.414       .  A
C600        C605   1.451       .  S
C601        C602   1.415       .  A
C601        C608   1.450       .  S
C602        C603   1.417       .  A
C603        C604   1.409       .  A
C603        C606   1.453       .  S
C604        C607   1.453       .  S
C605        N612   1.157       .  T
C606        N611   1.158       .  T
C607        N609   1.157       .  T
C608        N610   1.157       .  T
C613        C614   1.417       .  A
C613        C618   1.416       .  A
C614        C615   1.415       .  A
C614        C619   1.451       .  S
C615        C616   1.416       .  A
C615        C622   1.451       .  S
C616        C617   1.416       .  A
C617        C618   1.412       .  A
C617        C620   1.453       .  S
C618        C621   1.452       .  S
C619        N626   1.158       .  T
C620        N625   1.158       .  T
C621        N623   1.157       .  T
C622        N624   1.157       .  T
C627       C1613   1.493       .  S
C627        C628   1.418       .  A
C627        C632   1.418       .  A
C628        C629   1.409       .  A
C628        C633   1.453       .  S
C629        C630   1.415       .  A
C629        C636   1.453       .  S
C630        C631   1.416       .  A
C631        C632   1.412       .  A
C631        C634   1.453       .  S
C632        C635   1.452       .  S
C633        N640   1.158       .  T
C634        N639   1.158       .  T
C635        N637   1.157       .  T
C636        N638   1.157       .  T
C641        C642   1.417       .  A
C641        C646   1.415       .  A
C642        C643   1.413       .  A
C642        C647   1.452       .  S
C643        C644   1.416       .  A
C643        C650   1.452       .  S
C644        C645   1.416       .  A
C645        C646   1.412       .  A
C645        C648   1.452       .  S
C646        C649   1.452       .  S
C647        N654   1.158       .  T
C648        N653   1.157       .  T
C649        N651   1.157       .  T
C650        N652   1.157       .  T
C655        C656   1.415       .  A
C655        C660   1.415       .  A
C656        C657   1.415       .  A
C656        C661   1.451       .  S
C657        C658   1.414       .  A
C657        C664   1.450       .  S
C658        C659   1.415       .  A
C659        C660   1.411       .  A
C659        C662   1.453       .  S
C660        C663   1.452       .  S
C661        N668   1.157       .  T
C662        N667   1.158       .  T
C663        N665   1.157       .  T
C664        N666   1.157       .  T
C669        C670   1.415       .  A
C669        C674   1.415       .  A
C670        C671   1.411       .  A
C670        C675   1.453       .  S
C671        C672   1.416       .  A
C671        C678   1.452       .  S
C672        C673   1.415       .  A
C673        C674   1.415       .  A
C673        C676   1.451       .  S
C674        C677   1.450       .  S
C675        N682   1.157       .  T
C676        N681   1.157       .  T
C677        N679   1.157       .  T
C678        N680   1.157       .  T
C683       C1602   1.478   1_554  S
C683        C684   1.413       .  A
C683        C688   1.411       .  A
C684        C685   1.410       .  A
C684        C689   1.453       .  S
C685        C686   1.417       .  A
C685        C692   1.451       .  S
C686        C687   1.415       .  A
C687        C688   1.408       .  A
C687        C690   1.451       .  S
C688        C691   1.452   1_554  S
C689        N696   1.158       .  T
C690        N695   1.157       .  T
C691       N2005   1.157       .  T
C692        N694   1.157       .  T
N693       C2003   1.157       .  T
C697        C698   1.416       .  A
C697        C702   1.411       .  A
C698        C699   1.413       .  A
C698        C703   1.452       .  S
C699        C700   1.413       .  A
C699        C706   1.451       .  S
C700        C701   1.418       .  A
C701        C702   1.414       .  A
C701        C704   1.451       .  S
C702        C705   1.450       .  S
C703        N710   1.157       .  T
C704        N709   1.157       .  T
C705        N707   1.157       .  T
C706        N708   1.157       .  T
C711        C712   1.416       .  A
C711        C716   1.415       .  A
C712        C713   1.410       .  A
C712        C717   1.453       .  S
C713        C714   1.415       .  A
C713        C720   1.453       .  S
C714        C715   1.413       .  A
C715        C716   1.414       .  A
C715       C2030   1.450   1_554  S
C716       C2031   1.450   1_554  S
C717        N724   1.158       .  T
C718       C2027   1.450       .  S
C718        N723   1.157       .  T
C719       C2028   1.450       .  S
C719        N721   1.157       .  T
C720        N722   1.158       .  T
C725        C726   1.413       .  A
C725        C730   1.413       .  A
C726        C727   1.413       .  A
C726        C731   1.451       .  S
C727        C728   1.414       .  A
C727        C734   1.451       .  S
C728        C729   1.415       .  A
C729        C730   1.409       .  A
C729        C732   1.453       .  S
C730        C733   1.452       .  S
C731        N738   1.157       .  T
C732        N737   1.158       .  T
C733        N735   1.157       .  T
C734        N736   1.157       .  T
C739        C740   1.409       .  A
C739        C744   1.410       .  A
C740        C741   1.408       .  A
C740        C745   1.453       .  S
C741        C742   1.417       .  A
C741        C748   1.451       .  S
C742        C743   1.416       .  A
C743        C744   1.410       .  A
C743        C746   1.452       .  S
C744        C747   1.452       .  S
C745        N752   1.157       .  T
C746        N751   1.157       .  T
C747        N749   1.157       .  T
C748        N750   1.157       .  T
C753        C754   1.416       .  A
C753        C758   1.417       .  A
C754        C755   1.415       .  A
C754        C759   1.451       .  S
C755        C756   1.416       .  A
C755        C762   1.451       .  S
C756        C757   1.415       .  A
C757        C758   1.411       .  A
C757        C760   1.453       .  S
C758        C761   1.452       .  S
C759        N766   1.157       .  T
C760        N765   1.157       .  T
C761        N763   1.158       .  T
C762        N764   1.158       .  T
C767       C1551   1.497       .  S
C767        C768   1.417       .  A
C767        C772   1.414       .  A
C768        C769   1.417       .  A
C768        C773   1.452       .  S
C769        C770   1.418       .  A
C769        C776   1.451       .  S
C770        C771   1.419       .  A
C771        C772   1.412       .  A
C771        C774   1.452       .  S
C772        C775   1.453       .  S
C773       N2092   1.157       .  T
C774        N779   1.157       .  T
C775        N777   1.158       .  T
C776        N778   1.158       .  T
N780       C2085   1.157       .  T
C781        C782   1.417       .  A
C781        C786   1.419       .  A
C782        C783   1.409       .  A
C782        C787   1.453       .  S
C783        C784   1.414       .  A
C783        C790   1.452       .  S
C784        C785   1.414       .  A
C785        C786   1.409       .  A
C785        C788   1.454       .  S
C786        C789   1.452       .  S
C787        N794   1.157       .  T
C788        N793   1.157       .  T
C789        N791   1.158       .  T
C790        N792   1.158       .  T
C795        C796   1.418       .  A
C795        C800   1.412       .  A
C796        C797   1.414       .  A
C796        C801   1.453       .  S
C797        C798   1.417       .  A
C797        C804   1.452       .  S
C798        C799   1.421       .  A
C799        C800   1.413       .  A
C799        C802   1.453       .  S
C800        C803   1.451       .  S
C801        N808   1.158       .  T
C802        N807   1.157       .  T
C803        N805   1.158       .  T
C804        N806   1.158       .  T
C809        C810   1.414       .  A
C809        C814   1.411       .  A
C810        C811   1.413       .  A
C810        C815   1.452       .  S
C811        C812   1.416       .  A
C811        C818   1.451       .  S
C812        C813   1.421       .  A
C813        C814   1.413       .  A
C813        C816   1.452       .  S
C814        C817   1.452       .  S
C815        N822   1.157       .  T
C816        N821   1.158       .  T
C817        N819   1.157       .  T
C818        N820   1.157       .  T
C823        C824   1.412       .  A
C823        C828   1.412       .  A
C824        C825   1.410       .  A
C824        C829   1.453       .  S
C825        C826   1.417       .  A
C825        C832   1.451       .  S
C826        C827   1.416       .  A
C827        C828   1.412       .  A
C827        C830   1.451       .  S
C828        C831   1.452       .  S
C829        N836   1.157       .  T
C830        N835   1.157       .  T
C831        N833   1.158       .  T
C832        N834   1.157       .  T
C837       C1483   1.486       .  S
C837        C838   1.416       .  A
C837        C842   1.418       .  A
C838        C839   1.407       .  A
C838        C843   1.454       .  S
C839        C840   1.412       .  A
C839        C846   1.452       .  S
C840        C841   1.411       .  A
C841        C842   1.409       .  A
C841        C844   1.453       .  S
C842        C845   1.451       .  S
C843        N850   1.157       .  T
C844        N849   1.157       .  T
C845        N847   1.158       .  T
C846        N848   1.158       .  T
C851        C852   1.414       .  A
C851        C856   1.416       .  A
C852        C853   1.412       .  A
C852        C857   1.451       .  S
C853        C854   1.416       .  A
C853        C860   1.452       .  S
C854        C855   1.416       .  A
C855        C856   1.409       .  A
C855        C858   1.453       .  S
C856        C859   1.453       .  S
C857        N864   1.157       .  T
C858        N863   1.158       .  T
C859        N861   1.157       .  T
C860        N862   1.157       .  T
C865        C866   1.414       .  A
C865        C870   1.415       .  A
C866        C867   1.410       .  A
C866        C871   1.452       .  S
C867        C868   1.414       .  A
C867        C874   1.451       .  S
C868        C869   1.416       .  A
C869        C870   1.412       .  A
C869        C872   1.452       .  S
C870        C873   1.452       .  S
C871        N878   1.157       .  T
C872        N877   1.158       .  T
C873        N875   1.158       .  T
C874        N876   1.157       .  T
C879        C884   1.422       .  A
C879       C2192   1.428       .  A
C880        C881   1.415   1_545  A
C880       C2191   1.428   1_554  A
C880        C885   1.452       .  S
C881        C882   1.410       .  A
C881        C888   1.453       .  S
C882       C2195   1.411   1_554  A
C883        C884   1.412   1_565  A
C883       C2194   1.411       .  A
C883        C886   1.453       .  S
C884        C887   1.451       .  S
C885        N892   1.158       .  T
C886        N891   1.157       .  T
C887        N889   1.157       .  T
C888        N890   1.158       .  T
C893        C894   1.416       .  A
C893        C898   1.416       .  A
C894        C895   1.414   1_455  A
C894        C899   1.450       .  S
C895        C896   1.412       .  A
C895        C902   1.451       .  S
C896        C897   1.414       .  A
C897        C898   1.408   1_655  A
C897        C900   1.454       .  S
C898        C901   1.453       .  S
C899        N906   1.157       .  T
C900        N905   1.157       .  T
C901        N903   1.157       .  T
C902        N904   1.157       .  T
C907        C908   1.417       .  A
C907        C912   1.417       .  A
C908        C909   1.412       .  A
C908        C913   1.452       .  S
C909        C910   1.413       .  A
C909        C916   1.452       .  S
C910        C911   1.412       .  A
C911        C912   1.411       .  A
C911        C914   1.453       .  S
C912        C915   1.451       .  S
C913        N920   1.157       .  T
C914        N919   1.157       .  T
C915        N917   1.158       .  T
C916        N918   1.158       .  T
C921        C922   1.413       .  A
C921        C926   1.417       .  A
C922        C923   1.413       .  A
C922        C927   1.451       .  S
C923        C924   1.417       .  A
C923        C930   1.453       .  S
C924        C925   1.413       .  A
C925        C926   1.414       .  A
C925        C928   1.451       .  S
C926       C2241   1.451   1_554  S
C927        N934   1.157       .  T
C928        N933   1.157       .  T
C929       C2238   1.451       .  S
C929        N931   1.157       .  T
C930        N932   1.158       .  T
C935        C936   1.415       .  A
C935        C940   1.414       .  A
C936        C937   1.414   1_655  A
C936        C941   1.451       .  S
C937        C938   1.413       .  A
C937        C944   1.451       .  S
C938        C939   1.414       .  A
C939        C940   1.407   1_455  A
C939        C942   1.453       .  S
C940        C943   1.454       .  S
C941        N948   1.157       .  T
C942        N947   1.157       .  T
C943        N945   1.157       .  T
C944        N946   1.157       .  T
C949        C950   1.416       .  A
C949        C954   1.415       .  A
C950        C951   1.408   1_565  A
C950        C955   1.453       .  S
C951        C952   1.412       .  A
C951        C958   1.453       .  S
C952        C953   1.411       .  A
C953        C954   1.412   1_545  A
C953        C956   1.451       .  S
C954        C957   1.451       .  S
C955        N962   1.158       .  T
C956        N961   1.157       .  T
C957        N959   1.157       .  T
C958        N960   1.157       .  T
C963       C1470   1.487       .  S
C963        C964   1.418       .  A
C963        C968   1.417       .  A
C964        C965   1.410       .  A
C964        C969   1.452       .  S
C965        C966   1.411       .  A
C965        C972   1.453       .  S
C966        C967   1.409       .  A
C967        C968   1.407       .  A
C967        C970   1.453       .  S
C968        C971   1.452       .  S
C969       N2288   1.157   1_554  T
C970        N975   1.157       .  T
C971        N973   1.158       .  T
C972        N974   1.158       .  T
N976       C2281   1.157       .  T
C977        C978   1.412       .  A
C977        C982   1.412       .  A
C978        C979   1.411       .  A
C978        C983   1.453       .  S
C979        C980   1.420       .  A
C979        C986   1.452       .  S
C980        C981   1.418       .  A
C981        C982   1.415       .  A
C981        C984   1.451       .  S
C982        C985   1.451       .  S
C983        N990   1.157       .  T
C984        N989   1.157       .  T
C985        N987   1.157       .  T
C986        N988   1.158       .  T
C991        C992   1.413       .  A
C991        C996   1.413       .  A
C992        C993   1.410       .  A
C992        C997   1.453       .  S
C993        C994   1.416       .  A
C993       C1000   1.452       .  S
C994        C995   1.416       .  A
C995        C996   1.409       .  A
C995        C998   1.452       .  S
C996        C999   1.452       .  S
C997       N1004   1.157       .  T
C998       N1003   1.157       .  T
C999       N1001   1.157       .  T
C1000      N1002   1.157       .  T
C1005      C1421   1.489       .  S
C1005      C1006   1.414       .  A
C1005      C1010   1.417       .  A
C1006      C1007   1.412       .  A
C1006      C1011   1.450       .  S
C1007      C1008   1.414       .  A
C1007      C1014   1.451       .  S
C1008      C1009   1.413       .  A
C1009      C1010   1.408       .  A
C1009      C1012   1.453       .  S
C1010      C1013   1.453       .  S
C1011      N1018   1.157       .  T
C1012      N1017   1.158       .  T
C1013      N1015   1.157       .  T
C1014      N1016   1.157       .  T
C1019      C1020   1.414       .  A
C1019      C1024   1.413       .  A
C1020      C1021   1.414       .  A
C1020      C1025   1.450       .  S
C1021      C1022   1.413       .  A
C1021      C1028   1.451       .  S
C1022      C1023   1.415       .  A
C1023      C1024   1.409       .  A
C1023      C1026   1.453       .  S
C1024      C1027   1.453       .  S
C1025      N1032   1.157       .  T
C1026      N1031   1.158       .  T
C1027      N1029   1.157       .  T
C1028      N1030   1.157       .  T
C1033      C1034   1.416       .  A
C1033      C1038   1.414       .  A
C1034      C1035   1.412       .  A
C1034      C1039   1.451       .  S
C1035      C1036   1.415       .  A
C1035      C1042   1.452       .  S
C1036      C1037   1.415       .  A
C1037      C1038   1.412       .  A
C1037      C1040   1.452       .  S
C1038      C1041   1.451       .  S
C1039      N1046   1.157       .  T
C1040      N1045   1.158       .  T
C1041      N1043   1.157       .  T
C1042      N1044   1.157       .  T
C1047      C1048   1.417       .  A
C1047      C1052   1.418       .  A
C1048      C1049   1.412       .  A
C1048      C1053   1.452       .  S
C1049      C1050   1.414       .  A
C1049      C1056   1.452       .  S
C1050      C1051   1.417       .  A
C1051      C1052   1.416       .  A
C1051      C1054   1.451       .  S
C1052      C1055   1.452       .  S
C1053      N1060   1.158       .  T
C1054      N1059   1.158       .  T
C1055      N1057   1.157       .  T
C1056      N1058   1.157       .  T
C1061      C1062   1.410       .  A
C1061      C1066   1.411       .  A
C1062      C1063   1.414       .  A
C1062      C1067   1.451       .  S
C1063      C1064   1.417       .  A
C1063      C1070   1.450       .  S
C1064      C1065   1.416       .  A
C1065      C1066   1.410       .  A
C1065      C1068   1.451       .  S
C1066      C1069   1.453       .  S
C1067      N1074   1.157       .  T
C1068      N1073   1.157       .  T
C1069      N1071   1.157       .  T
C1070      N1072   1.157       .  T
C1075      C1076   1.414       .  A
C1075      C1080   1.416       .  A
C1076      C1077   1.415       .  A
C1076      C1081   1.451       .  S
C1077      C1078   1.416       .  A
C1077      C1084   1.451       .  S
C1078      C1079   1.416       .  A
C1079      C1080   1.411       .  A
C1079      C1082   1.453       .  S
C1080      C1083   1.453       .  S
C1081      N1088   1.157       .  T
C1082      N1087   1.158       .  T
C1083      N1085   1.158       .  T
C1084      N1086   1.157       .  T
C1089      C1090   1.414       .  A
C1089      C1094   1.415       .  A
C1090      C1091   1.414       .  A
C1090      C1095   1.451       .  S
C1091      C1092   1.416       .  A
C1091      C1098   1.450       .  S
C1092      C1093   1.417       .  A
C1093      C1094   1.411       .  A
C1093      C1096   1.453       .  S
C1094      C1097   1.453       .  S
C1095      N1102   1.157       .  T
C1096      N2413   1.158   1_554  T
C1097      N2411   1.158   1_554  T
C1098      N1100   1.157       .  T
N1099      C2409   1.158       .  T
N1101      C2408   1.158       .  T
C1103      C1366   1.484       .  S
C1103      C1104   1.413       .  A
C1103      C1108   1.411       .  A
C1104      C1105   1.409       .  A
C1104      C1109   1.454       .  S
C1105      C1106   1.418       .  A
C1105      C1112   1.453       .  S
C1106      C1107   1.418       .  A
C1107      C1108   1.413       .  A
C1107      C1110   1.451       .  S
C1108      C2423   1.452       .  S
C1109      N1116   1.158       .  T
C1110      N1115   1.157       .  T
C1111      C2420   1.452   1_554  S
C1111      N1113   1.157       .  T
C1112      N1114   1.158       .  T
C1117      C1118   1.418       .  A
C1117      C1122   1.415       .  A
C1118      C1119   1.414       .  A
C1118      C1123   1.452       .  S
C1119      C1120   1.413       .  A
C1119      C1126   1.451       .  S
C1120      C1121   1.416       .  A
C1121      C1122   1.414       .  A
C1121      C1124   1.452       .  S
C1122      C1125   1.451       .  S
C1123      N1130   1.158       .  T
C1124      N1129   1.157       .  T
C1125      N1127   1.157       .  T
C1126      N1128   1.157       .  T
C1131      C1132   1.409       .  A
C1131      C2448   1.411       .  A
C1132      C1133   1.411       .  A
C1132      C1137   1.452       .  S
C1133      C2446   1.417   1_554  A
C1133      C1140   1.452       .  S
C1134      C1135   1.416       .  A
C1134      C2445   1.417       .  A
C1135      C1136   1.414       .  A
C1135      C1138   1.450       .  S
C1136      C2443   1.411       .  A
C1136      C1139   1.451       .  S
C1137      N1144   1.158       .  T
C1138      N1143   1.157       .  T
C1139      N1141   1.157       .  T
C1140      N1142   1.157   1_554  T
C1145      C1146   1.418       .  A
C1145      C1150   1.417       .  A
C1146      C1147   1.411   1_655  A
C1146      C1151   1.452       .  S
C1147      C1148   1.416       .  A
C1147      C1154   1.454       .  S
C1148      C1149   1.416       .  A
C1149      C1150   1.415   1_455  A
C1149      C1152   1.451       .  S
C1150      C1153   1.452       .  S
C1151      N1158   1.158       .  T
C1152      N1157   1.158       .  T
C1153      N1155   1.157       .  T
C1154      N1156   1.157       .  T
C1159      C1160   1.416       .  A
C1159      C1164   1.418       .  A
C1160      C1161   1.410   1_655  A
C1160      C1165   1.453       .  S
C1161      C1162   1.415       .  A
C1161      C1168   1.452       .  S
C1162      C1163   1.412       .  A
C1163      C1164   1.415   1_455  A
C1163      C1166   1.451       .  S
C1164      C1167   1.450       .  S
C1165      N1172   1.157       .  T
C1166      N1171   1.157       .  T
C1167      N1169   1.157       .  T
C1168      N1170   1.157       .  T
C1173      C1174   1.418       .  A
C1173      C1178   1.419       .  A
C1174      C1175   1.411       .  A
C1174      C1179   1.451       .  S
C1175      C1176   1.413       .  A
C1175      C1182   1.453       .  S
C1176      C1177   1.415       .  A
C1177      C1178   1.409       .  A
C1177      C1180   1.453       .  S
C1178      C1181   1.454       .  S
C1179      N1186   1.158       .  T
C1180      N1185   1.158       .  T
C1181      N1183   1.157       .  T
C1182      N1184   1.157       .  T
C1187      C1188   1.417       .  A
C1187      C1192   1.420       .  A
C1188      C1189   1.415       .  A
C1188      C1193   1.451       .  S
C1189      C1190   1.414       .  A
C1189      C1196   1.452       .  S
C1190      C1191   1.410       .  A
C1191      C1192   1.411       .  A
C1191      C1194   1.452       .  S
C1192      C2507   1.452       .  S
C1193      N1200   1.157       .  T
C1194      N1199   1.157       .  T
C1195      C2504   1.452       .  S
C1195      N1197   1.157       .  T
C1196      N1198   1.157       .  T
C1201      C1202   1.410       .  A
C1201      C1206   1.412       .  A
C1202      C1203   1.410       .  A
C1202      C1207   1.452       .  S
C1203      C1204   1.418       .  A
C1203      C1210   1.453       .  S
C1204      C1205   1.415       .  A
C1205      C1206   1.413       .  A
C1205      C1208   1.451       .  S
C1206      C1209   1.451       .  S
C1207      N1214   1.157       .  T
C1208      N1213   1.157       .  T
C1209      N1211   1.157       .  T
C1210      N1212   1.158       .  T
C1215      C1216   1.418       .  A
C1215      C1220   1.415       .  A
C1216      C1217   1.409       .  A
C1216      C1221   1.453       .  S
C1217      C1218   1.415       .  A
C1217      C1224   1.454       .  S
C1218      C1219   1.413       .  A
C1219      C1220   1.413       .  A
C1219      C1222   1.451       .  S
C1220      C1223   1.450       .  S
C1221      N1228   1.158       .  T
C1222      N1227   1.157       .  T
C1223      N1225   1.157       .  T
C1224      N1226   1.158       .  T
C1229      C1230   1.416       .  A
C1229      C1234   1.415       .  A
C1230      C1231   1.412       .  A
C1230      C1235   1.452       .  S
C1231      C1232   1.416       .  A
C1231      C1238   1.453       .  S
C1232      C1233   1.417       .  A
C1233      C1234   1.417       .  A
C1233      C1236   1.450       .  S
C1234      C1237   1.451       .  S
C1235      N1242   1.158       .  T
C1236      N1241   1.157       .  T
C1237      N1239   1.157       .  T
C1238      N1240   1.157       .  T
C1243      C1244   1.410       .  A
C1243      C1248   1.410       .  A
C1244      C1245   1.411       .  A
C1244      C1249   1.452       .  S
C1245      C1246   1.417       .  A
C1245      C2564   1.452   1_554  S
C1246      C1381   1.488       .  S
C1246      C1247   1.416       .  A
C1247      C1248   1.409       .  A
C1247      C1250   1.451       .  S
C1248      C1251   1.453       .  S
C1249      N1256   1.158       .  T
C1250      N1255   1.157       .  T
C1251      N1253   1.157       .  T
C1252      C2557   1.452       .  S
C1252      N1254   1.157       .  T
C1257      C1258   1.415       .  A
C1257      C1262   1.415       .  A
C1258      C1259   1.414       .  A
C1258      C2575   1.450   1_554  S
C1259      C1260   1.411       .  A
C1259      C2578   1.451   1_554  S
C1260      C1261   1.412       .  A
C1261      C1262   1.405       .  A
C1261      C1264   1.454       .  S
C1262      C1265   1.453       .  S
C1263      C2570   1.450       .  S
C1263      N1270   1.157       .  T
C1264      N1269   1.157       .  T
C1265      N1267   1.157       .  T
C1266      C2571   1.451       .  S
C1266      N1268   1.157       .  T
C1271      C1272   1.415       .  A
C1271      C1276   1.412       .  A
C1272      C1273   1.410       .  A
C1272      C1277   1.451       .  S
C1273      C1274   1.412       .  A
C1273      C1280   1.451       .  S
C1274      C1275   1.418       .  A
C1275      C1276   1.414       .  A
C1275      C2590   1.452       .  S
C1276      C1279   1.451       .  S
C1277      N1284   1.157       .  T
C1278      C2587   1.452   1_554  S
C1278      N1283   1.158       .  T
C1279      N1281   1.157       .  T
C1280      N1282   1.157       .  T
C1285      C1286   1.412       .  A
C1285      C1290   1.412       .  A
C1286      C1287   1.409       .  A
C1286      C1291   1.453       .  S
C1287      C1288   1.417       .  A
C1287      C1294   1.451       .  S
C1288      C1289   1.418       .  A
C1289      C1290   1.410       .  A
C1289      C1292   1.451       .  S
C1290      C1293   1.453       .  S
C1291      N1298   1.158       .  T
C1292      N1297   1.157       .  T
C1293      N1295   1.157       .  T
C1294      N1296   1.157       .  T
C1299      C1300   1.415       .  A
C1299      C1304   1.416       .  A
C1300      C1301   1.413       .  A
C1300      C1305   1.450       .  S
C1301      C1302   1.412       .  A
C1301      C1308   1.451       .  S
C1302      C1303   1.415       .  A
C1303      C1304   1.411       .  A
C1303      C1306   1.453       .  S
C1304      C1307   1.452       .  S
C1305      N1312   1.157       .  T
C1306      N1311   1.158       .  T
C1307      N1309   1.158       .  T
C1308      N1310   1.157       .  T
O1313      C1316   1.263       .  A
O1313     Cd1318   2.427       .  S
C1314      O1323   1.266       .  A
C1314      O1319   1.266       .  A
C1314      C2597   1.480       .  S
O1315     Cd1318   2.493       .  S
C1316      O1324   1.267       .  A
C1316      C2569   1.484       .  S
C1317      O1322   1.269       .  A
C1317      O1320   1.263       .  A
C1317      C2611   1.491       .  S
Cd1318     O1325   2.446       .  S
Cd1318     O1324   2.492       .  S
Cd1318     O1323   2.430       .  S
Cd1318     O1319   2.442       .  S
Cd1318     O1322   2.501       .  S
Cd1318     O1320   2.447       .  S
C1321      C2586   1.488   1_554  S
O1326      C1329   1.265       .  A
O1326     Cd1331   2.430       .  S
C1327      O1336   1.267       .  A
C1327      O1332   1.264       .  A
C1327      C2530   1.487       .  S
O1328      C1334   1.271       .  A
O1328     Cd1331   2.491       .  S
C1329      O1337   1.266       .  A
C1329      C2555   1.476       .  S
C1330      O1335   1.269       .  A
C1330      O1333   1.262       .  A
C1330      C2541   1.495       .  S
Cd1331     O1338   2.423       .  S
Cd1331     O1337   2.460       .  S
Cd1331     O1336   2.465       .  S
Cd1331     O1332   2.437       .  S
Cd1331     O1335   2.516       .  S
Cd1331     O1333   2.444       .  S
C1334      O1338   1.263       .  A
C1334      C2614   1.487       .  S
O1339      C1342   1.267       .  A
O1339     Cd1344   2.463       .  S
C1340      O1349   1.265       .  A
C1340      O1345   1.267       .  A
C1340      C2471   1.493       .  S
O1341      C1347   1.267       .  A
O1341     Cd1344   2.485       .  S
C1342      O1350   1.265       .  A
C1342      C2485   1.492       .  S
C1343      O1348   1.267       .  A
C1343      O1346   1.266       .  A
C1343      C2502   1.488       .  S
Cd1344     O1351   2.448       .  S
Cd1344     O1350   2.438       .  S
Cd1344     O1349   2.473       .  S
Cd1344     O1345   2.466       .  S
Cd1344     O1348   2.480       .  S
Cd1344     O1346   2.458       .  S
C1347      O1351   1.261       .  A
C1347      C2513   1.481       .  S
O1352      C1355   1.266       .  A
O1352     Cd1357   2.455       .  S
C1353      O1362   1.265       .  A
C1353      O1358   1.264       .  A
C1353      C2457   1.498       .  S
O1354      C1360   1.269       .  A
O1354     Cd1357   2.488       .  S
C1355      O1363   1.266       .  A
C1355      C2600   1.490       .  S
C1356      O1361   1.267       .  A
C1356      O1359   1.262       .  A
C1356      C2583   1.487       .  S
Cd1357     O1364   2.432       .  S
Cd1357     O1363   2.449       .  S
Cd1357     O1362   2.483       .  S
Cd1357     O1358   2.459       .  S
Cd1357     O1361   2.509       .  S
Cd1357     O1359   2.444       .  S
C1360      O1364   1.264       .  A
C1360      C2516   1.489       .  S
O1365      C1368   1.268       .  A
O1365     Cd1370   2.448       .  S
C1366      O1375   1.263       .  A
C1366      O1371   1.267       .  A
O1367      C1373   1.265       .  A
O1367     Cd1370   2.487       .  S
C1368      O1376   1.268       .  A
C1368      C2401   1.490       .  S
C1369      O1374   1.269       .  A
C1369      O1372   1.262       .  A
C1369      C2443   1.481       .  S
Cd1370     O1377   2.491       .  S
Cd1370     O1376   2.464       .  S
Cd1370     O1375   2.430       .  S
Cd1370     O1371   2.476       .  S
Cd1370     O1374   2.496       .  S
Cd1370     O1372   2.441       .  S
C1373      O1377   1.264       .  A
C1373      C2432   1.493       .  S
O1378      C1381   1.266   1_556  A
O1378     Cd1383   2.457       .  S
C1379      O1388   1.266       .  A
C1379      O1384   1.265       .  A
C1379      C2390   1.493       .  S
O1380      C1386   1.269       .  A
O1380     Cd1383   2.510       .  S
C1381      O1389   1.266   1_554  A
C1382      O1387   1.268       .  A
C1382      O1385   1.263       .  A
C1382      C2544   1.497       .  S
Cd1383     O1390   2.437       .  S
Cd1383     O1389   2.449       .  S
Cd1383     O1388   2.486       .  S
Cd1383     O1384   2.456       .  S
Cd1383     O1387   2.511       .  S
Cd1383     O1385   2.449       .  S
C1386      O1390   1.263       .  A
C1386      C2446   1.491       .  S
O1391      C1394   1.265       .  A
O1391     Cd1396   2.447       .  S
C1392      O1401   1.264       .  A
C1392      O1397   1.267       .  A
C1392      C2488   1.486       .  S
O1393      C1399   1.268       .  A
C1394      O1402   1.268       .  A
C1394      C2359   1.498       .  S
C1395      O1400   1.269       .  A
C1395      O1398   1.262       .  A
C1395      C2373   1.481       .  S
Cd1396     O1403   2.445       .  S
Cd1396     O1402   2.493       .  S
Cd1396     O1401   2.434       .  S
Cd1396     O1397   2.455       .  S
Cd1396     O1400   2.495       .  S
Cd1396     O1398   2.430       .  S
C1399      C2499   1.498       .  S
O1404      C1407   1.266       .  A
O1404     Cd1409   2.479       .  S
C1405      O1414   1.266       .  A
C1405      O1410   1.266       .  A
C1405      C2345   1.491       .  S
O1406      C1412   1.267       .  A
O1406     Cd1409   2.498       .  S
C1407      O1415   1.264       .  A
C1407      C2418   1.493       .  S
C1408      O1413   1.268       .  A
C1408      O1411   1.264       .  A
C1408      C2429   1.496       .  S
Cd1409     O1416   2.459       .  S
Cd1409     O1415   2.447       .  S
Cd1409     O1414   2.480       .  S
Cd1409     O1410   2.464       .  S
Cd1409     O1413   2.493       .  S
Cd1409     O1411   2.454       .  S
C1412      O1416   1.264       .  A
C1412      C2376   1.491       .  S
O1417      C1420   1.265       .  A
O1417     Cd1422   2.425       .  S
C1418      O1427   1.268       .  A
C1418      O1423   1.267       .  A
C1418      C2303   1.482       .  S
O1419      C1425   1.270       .  A
O1419     Cd1422   2.497       .  S
C1420      O1428   1.266       .  A
C1420      C2572   1.478       .  S
C1421      O1426   1.269       .  A
C1421      O1424   1.261       .  A
Cd1422     O1429   2.418       .  S
Cd1422     O1428   2.468       .  S
Cd1422     O1427   2.438       .  S
Cd1422     O1423   2.434       .  S
Cd1422     O1426   2.499       .  S
Cd1422     O1424   2.417       .  S
C1425      O1429   1.262       .  A
C1425      C2334   1.486       .  S
O1430      C1433   1.263       .  A
O1430     Cd1435   2.437       .  S
C1431      O1440   1.265       .  A
C1431      O1436   1.264       .  A
C1431      C2278   1.475       .  S
O1432      C1438   1.268       .  A
O1432     Cd1435   2.500       .  S
C1433      O1441   1.268       .  A
C1433      C2527   1.490       .  S
C1434      O1439   1.268       .  A
C1434      O1437   1.262       .  A
C1434      C2289   1.488       .  S
Cd1435     O1442   2.431       .  S
Cd1435     O1441   2.490       .  S
Cd1435     O1440   2.443       .  S
Cd1435     O1436   2.435       .  S
Cd1435     O1439   2.504       .  S
Cd1435     O1437   2.439       .  S
C1438      O1442   1.263       .  A
C1438      C2331   1.487       .  S
O1443      C1446   1.266       .  A
O1443     Cd1448   2.433       .  S
C1444      O1453   1.264       .  A
C1444      O1449   1.265       .  A
C1444      C2306   1.487       .  S
O1445      C1451   1.269       .  A
O1445     Cd1448   2.478       .  S
C1446      O1454   1.267       .  A
C1446      C2247   1.486       .  S
C1447      O1452   1.268       .  A
C1447      O1450   1.263       .  A
C1447      C2320   1.483       .  S
Cd1448     O1455   2.413       .  S
Cd1448     O1454   2.475       .  S
Cd1448     O1453   2.446       .  S
Cd1448     O1449   2.447       .  S
Cd1448     O1452   2.475       .  S
Cd1448     O1450   2.422       .  S
C1451      O1455   1.263       .  A
C1451      C2264   1.479       .  S
O1456      C1459   1.264       .  A
O1456     Cd1461   2.440       .  S
C1457      O1466   1.266       .  A
C1457      O1462   1.267       .  A
C1457      C2222   1.484       .  S
O1458      C1464   1.269       .  A
O1458     Cd1461   2.480       .  S
C1459      O1467   1.266       .  A
C1459      C2208   1.484       .  S
C1460      O1465   1.268       .  A
C1460      O1463   1.262       .  A
C1460      C2236   1.493       .  S
Cd1461     O1468   2.430       .  S
Cd1461     O1467   2.475       .  S
Cd1461     O1466   2.450       .  S
Cd1461     O1462   2.445       .  S
Cd1461     O1465   2.514       .  S
Cd1461     O1463   2.439       .  S
C1464      O1468   1.262       .  A
C1464      C2261   1.486       .  S
O1469      C1472   1.265       .  A
O1469     Cd1474   2.442       .  S
C1470      O1479   1.267   1_554  A
C1470      O1475   1.268   1_554  A
O1471      C1477   1.270       .  A
O1471     Cd1474   2.480       .  S
C1472      O1480   1.266       .  A
C1472      C2177   1.487       .  S
C1473      O1478   1.270       .  A
C1473      O1476   1.262       .  A
C1473      C2292   1.497       .  S
Cd1474     O1481   2.449       .  S
Cd1474     O1480   2.478       .  S
Cd1474     O1479   2.434       .  S
Cd1474     O1475   2.431       .  S
Cd1474     O1478   2.501       .  S
Cd1474     O1476   2.432       .  S
C1477      O1481   1.263       .  A
C1477      C2191   1.510       .  S
O1482      C1485   1.264       .  A
O1482     Cd1487   2.460       .  S
C1483      O1492   1.266       .  A
C1483      O1488   1.265       .  A
O1484      C1490   1.268       .  A
O1484     Cd1487   2.479       .  S
C1485      O1493   1.264       .  A
C1485      C2135   1.483       .  S
C1486      O1491   1.266       .  A
C1486      O1489   1.261       .  A
C1486      C2166   1.490       .  S
Cd1487     O1494   2.441       .  S
Cd1487     O1493   2.462       .  S
Cd1487     O1492   2.434       .  S
Cd1487     O1488   2.436       .  S
Cd1487     O1491   2.480       .  S
Cd1487     O1489   2.440       .  S
C1490      O1494   1.265       .  A
C1490      C2194   1.488       .  S
O1495      C1498   1.265       .  A
O1495     Cd1500   2.469       .  S
C1496      O1505   1.266       .  A
C1496      O1501   1.267       .  A
C1496      C2219   1.492       .  S
O1497      C1503   1.268       .  A
O1497     Cd1500   2.495       .  S
C1498      O1506   1.265       .  A
C1498      C2362   1.496       .  S
C1499      O1504   1.268       .  A
C1499      C2233   1.492       .  S
Cd1500     O1507   2.444       .  S
Cd1500     O1506   2.493       .  S
Cd1500     O1505   2.458       .  S
Cd1500     O1501   2.471       .  S
Cd1500     O1502   2.461       .  S
C1503      O1507   1.263       .  A
C1503      C2121   1.489       .  S
O1508      C1511   1.265       .  A
O1508     Cd1513   2.443       .  S
C1509      O1518   1.264       .  A
C1509      O1514   1.266       .  A
C1509      C2152   1.477       .  S
O1510      C1516   1.268       .  A
O1510     Cd1513   2.492       .  S
C1511      O1519   1.267       .  A
C1511      C2348   1.490       .  S
C1512      O1517   1.268       .  A
C1512      O1515   1.263       .  A
C1512      C2163   1.489       .  S
Cd1513     O1520   2.438       .  S
Cd1513     O1519   2.469       .  S
Cd1513     O1518   2.430       .  S
Cd1513     O1514   2.448       .  S
Cd1513     O1517   2.492       .  S
Cd1513     O1515   2.428       .  S
C1516      O1520   1.263       .  A
C1516      C2124   1.497       .  S
O1521      C1524   1.264       .  A
O1521     Cd1526   2.455       .  S
C1522      O1531   1.265       .  A
C1522      O1527   1.266       .  A
C1522      C2093   1.491       .  S
O1523      C1529   1.269       .  A
O1523     Cd1526   2.505       .  S
C1524      O1532   1.266       .  A
C1524      C2460   1.495       .  S
C1525      O1530   1.270       .  A
C1525      O1528   1.264       .  A
C1525      C2082   1.501       .  S
Cd1526     O1533   2.436       .  S
Cd1526     O1532   2.483       .  S
Cd1526     O1531   2.434       .  S
Cd1526     O1527   2.444       .  S
Cd1526     O1530   2.511       .  S
Cd1526     O1528   2.437       .  S
C1529      O1533   1.262       .  A
C1529      C2107   1.495       .  S
O1534      C1537   1.263       .  A
O1534     Cd1539   2.446       .  S
C1535      O1544   1.265       .  A
C1535      O1540   1.264       .  A
C1535      C2054   1.486       .  S
O1536      C1542   1.269       .  A
O1536     Cd1539   2.494       .  S
C1537      O1545   1.267       .  A
C1537      C2474   1.490       .  S
C1538      O1543   1.267       .  A
C1538      O1541   1.262       .  A
C1538      C2068   1.495       .  S
Cd1539     O1546   2.430       .  S
Cd1539     O1545   2.494       .  S
Cd1539     O1544   2.458       .  S
Cd1539     O1540   2.439       .  S
Cd1539     O1543   2.509       .  S
Cd1539     O1541   2.437       .  S
C1542      O1546   1.264       .  A
C1542      C2110   1.500       .  S
O1547      C1550   1.265       .  A
O1547     Cd1552   2.447       .  S
C1548      O1557   1.265       .  A
C1548      O1553   1.265       .  A
C1548      C2096   1.485       .  S
O1549      C1555   1.268       .  A
O1549     Cd1552   2.492       .  S
C1550      O1558   1.268       .  A
C1550      C2026   1.489       .  S
C1551      O1556   1.268       .  A
C1551      O1554   1.264       .  A
Cd1552     O1559   2.435       .  S
Cd1552     O1558   2.480       .  S
Cd1552     O1557   2.447       .  S
Cd1552     O1553   2.442       .  S
Cd1552     O1556   2.498       .  S
Cd1552     O1554   2.450       .  S
C1555      O1559   1.262       .  A
C1555      C2040   1.486       .  S
O1560      C1563   1.266       .  A
O1560     Cd1565   2.461       .  S
C1561      O1570   1.264       .  A
C1561      O1566   1.267       .  A
C1561      C1998   1.486       .  S
O1562      C1568   1.269       .  A
O1562     Cd1565   2.491       .  S
C1563      O1571   1.267       .  A
C1563      C1984   1.494       .  S
C1564      O1569   1.268       .  A
C1564      O1567   1.264       .  A
C1564      C2012   1.492       .  S
Cd1565     O1572   2.432       .  S
Cd1565     O1571   2.479       .  S
Cd1565     O1570   2.458       .  S
Cd1565     O1566   2.449       .  S
Cd1565     O1569   2.498       .  S
Cd1565     O1567   2.461       .  S
C1568      O1572   1.263       .  A
C1568      C2037   1.484       .  S
O1573      C1576   1.265       .  A
O1573     Cd1578   2.461       .  S
C1574      O1583   1.265       .  A
C1574      O1579   1.267       .  A
C1574      C2051   1.475       .  S
O1575      C1581   1.269       .  A
O1575     Cd1578   2.499       .  S
C1576      O1584   1.266       .  A
C1576      C1953   1.493       .  S
C1577      O1582   1.269       .  A
C1577      C2065   1.497       .  S
Cd1578     O1585   2.442       .  S
Cd1578     O1584   2.469       .  S
Cd1578     O1583   2.432       .  S
Cd1578     O1579   2.446       .  S
Cd1578     O1580   2.448       .  S
C1581      O1585   1.264       .  A
C1581      C1967   1.491       .  S
O1586      C1589   1.265       .  A
O1586     Cd1591   2.451       .  S
C1587      O1596   1.267       .  A
C1587      O1592   1.265       .  A
C1587      C1911   1.488       .  S
O1588      C1594   1.268       .  A
O1588     Cd1591   2.500       .  S
C1589      O1597   1.265       .  A
C1589      C1942   1.491       .  S
C1590      O1595   1.269       .  A
C1590      O1593   1.263       .  A
C1590      C1970   1.491       .  S
Cd1591     O1598   2.452       .  S
Cd1591     O1597   2.454       .  S
Cd1591     O1596   2.476       .  S
Cd1591     O1592   2.446       .  S
Cd1591     O1595   2.505       .  S
Cd1591     O1593   2.446       .  S
C1594      O1598   1.263       .  A
C1594      C1925   1.496       .  S
O1599      C1602   1.267       .  A
O1599     Cd1604   2.441       .  S
C1600      O1609   1.267       .  A
C1600      O1605   1.265       .  A
C1600      C2387   1.492       .  S
O1601      C1607   1.269       .  A
O1601     Cd1604   2.511       .  S
C1602      O1610   1.265       .  A
C1603      O1608   1.270       .  A
C1603      O1606   1.262       .  A
C1603      C1897   1.483       .  S
Cd1604     O1611   2.441       .  S
Cd1604     O1610   2.433       .  S
Cd1604     O1609   2.481       .  S
Cd1604     O1605   2.447       .  S
Cd1604     O1608   2.496       .  S
Cd1604     O1606   2.412       .  S
C1607      O1611   1.263       .  A
C1607      C2009   1.490       .  S
O1612      C1615   1.266       .  A
O1612     Cd1617   2.457       .  S
C1613      O1622   1.265       .  A
C1613      O1618   1.265       .  A
O1614      C1620   1.269       .  A
O1614     Cd1617   2.498       .  S
C1615      O1623   1.267       .  A
C1615      C2404   1.493       .  S
C1616      O1621   1.270       .  A
C1616      O1619   1.264       .  A
C1616      C1928   1.495       .  S
Cd1617     O1624   2.418       .  S
Cd1617     O1623   2.481       .  S
Cd1617     O1622   2.459       .  S
Cd1617     O1618   2.430       .  S
Cd1617     O1621   2.493       .  S
Cd1617     O1619   2.429       .  S
C1620      O1624   1.261       .  A
C1620      C1900   1.482       .  S
O1625      C1628   1.267       .  A
O1625     Cd1630   2.455       .  S
C1626      O1635   1.268       .  A
C1626      O1631   1.265       .  A
C1626      C1956   1.493       .  S
O1627      C1633   1.268       .  A
O1627     Cd1630   2.508       .  S
C1628      O1636   1.265       .  A
C1628      C1855   1.481       .  S
C1629      O1634   1.269       .  A
C1629      C1869   1.495       .  S
Cd1630     O1637   2.428       .  S
Cd1630     O1636   2.432       .  S
Cd1630     O1635   2.481       .  S
Cd1630     O1631   2.444       .  S
Cd1630     O1632   2.429       .  S
C1633      O1637   1.262       .  A
C1633      C1883   1.497       .  S
O1638      C1641   1.265       .  A
O1638     Cd1643   2.440       .  S
C1639      O1648   1.267       .  A
C1639      O1644   1.263       .  A
C1639      C1914   1.491       .  S
O1640      C1646   1.268       .  A
O1640     Cd1643   2.503       .  S
C1641      O1649   1.266       .  A
C1641      C1830   1.476       .  S
C1642      O1647   1.268       .  A
C1642      O1645   1.264       .  A
C1642      C1841   1.498       .  S
Cd1643     O1650   2.452       .  S
Cd1643     O1649   2.453       .  S
Cd1643     O1648   2.496       .  S
Cd1643     O1644   2.436       .  S
Cd1643     O1647   2.499       .  S
Cd1643     O1645   2.450       .  S
C1646      O1650   1.261       .  A
C1646      C1886   1.498       .  S
O1651      C1654   1.265       .  A
O1651     Cd1656   2.453       .  S
C1652      O1661   1.266       .  A
C1652      O1657   1.266       .  A
C1652      C2138   1.492       .  S
O1653      C1659   1.268       .  A
O1653     Cd1656   2.493       .  S
C1654      O1662   1.264       .  A
C1655      O1660   1.267       .  A
C1655      O1658   1.264       .  A
C1655      C1844   1.490       .  S
Cd1656     O1663   2.447       .  S
Cd1656     O1662   2.441       .  S
Cd1656     O1661   2.467       .  S
Cd1656     O1657   2.470       .  S
Cd1656     O1660   2.489       .  S
Cd1656     O1658   2.457       .  S
C1659      O1663   1.263       .  A
C1659      C1813   1.493       .  S
O1664      C1667   1.265       .  A
O1664     Cd1669   2.462       .  S
C1665      O1674   1.265   1_554  A
C1665      O1670   1.268   1_554  A
O1666      C1672   1.266       .  A
O1666     Cd1669   2.480       .  S
C1667      O1675   1.265       .  A
C1667      C2180   1.488       .  S
C1668      O1673   1.268       .  A
C1668      O1671   1.262       .  A
C1668      C1816   1.501       .  S
Cd1669     O1676   2.462       .  S
Cd1669     O1675   2.464       .  S
Cd1669     O1674   2.410       .  S
Cd1669     O1670   2.475       .  S
Cd1669     O1673   2.514       .  S
Cd1669     O1671   2.435       .  S
C1672      O1676   1.263       .  A
C1672      C1799   1.497       .  S
O1677      C1680   1.266       .  A
O1677     Cd1682   2.448       .  S
C1678      O1687   1.268       .  A
C1678      O1683   1.264       .  A
C1678      C2023   1.490       .  S
O1679      C1685   1.268       .  A
O1679     Cd1682   2.503       .  S
C1680      O1688   1.265       .  A
C1680      C1743   1.480       .  S
C1681      C1760   1.491   1_554  S
Cd1682     O1689   2.444       .  S
Cd1682     O1688   2.437       .  S
Cd1682     O1687   2.490       .  S
Cd1682     O1683   2.442       .  S
Cd1682     O1686   2.505       .  S
Cd1682     O1684   2.435       .  S
C1685      O1689   1.263       .  A
C1685      C1774   1.500       .  S
O1690      C1693   1.264       .  A
O1690     Cd1695   2.449       .  S
C1691      O1700   1.264       .  A
C1691      O1696   1.265       .  A
C1691      C1785   1.489       .  S
O1692      C1698   1.265       .  A
O1692     Cd1695   2.501       .  S
C1693      O1701   1.267       .  A
C1693      C1981   1.492       .  S
C1694      O1699   1.269       .  A
C1694      O1697   1.264       .  A
C1694      C1771   1.493       .  S
Cd1695     O1702   2.474       .  S
Cd1695     O1701   2.493       .  S
Cd1695     O1700   2.441       .  S
Cd1695     O1696   2.468       .  S
Cd1695     O1699   2.490       .  S
Cd1695     O1697   2.445       .  S
C1698      O1702   1.264       .  A
C1698      C1802   1.497       .  S
O1703      C1706   1.265       .  A
O1703     Cd1708   2.460       .  S
C1704      O1713   1.267       .  A
C1704      O1709   1.265       .  A
C1704      C2205   1.490       .  S
O1705      C1711   1.270       .  A
O1705     Cd1708   2.496       .  S
C1706      O1714   1.264       .  A
C1706      C1858   1.487       .  S
C1707      O1712   1.267       .  A
C1707      O1710   1.263       .  A
C1707      C1872   1.490       .  S
Cd1708     O1715   2.436       .  S
Cd1708     O1714   2.448       .  S
Cd1708     O1713   2.489       .  S
Cd1708     O1709   2.438       .  S
Cd1708     O1712   2.498       .  S
Cd1708     O1710   2.446       .  S
C1711      O1715   1.264       .  A
C1711      C1729   1.496       .  S
O1716      C1719   1.266       .  A
O1716     Cd1721   2.460       .  S
C1717      O1726   1.266       .  A
C1717      O1722   1.263       .  A
C1717      C2250   1.485       .  S
O1718      C1724   1.268       .  A
O1718     Cd1721   2.493       .  S
C1719      O1727   1.265       .  A
C1719      C1746   1.489       .  S
C1720      O1725   1.267       .  A
C1720      O1723   1.263       .  A
C1720      C1757   1.491       .  S
Cd1721     O1728   2.440       .  S
Cd1721     O1727   2.444       .  S
Cd1721     O1726   2.486       .  S
Cd1721     O1722   2.430       .  S
Cd1721     O1725   2.499       .  S
Cd1721     O1723   2.443       .  S
C1724      O1728   1.264       .  A
C1724      C1732   1.494       .  S
C1729      C1730   1.419       .  A
C1729      C1734   1.414       .  A
C1730      C1731   1.414       .  A
C1730      C1735   1.452       .  S
C1731      C1732   1.414   1_565  A
C1731      C1738   1.452   1_565  S
C1732      C1733   1.418       .  A
C1733      C1734   1.413   1_545  A
C1733      C1736   1.453       .  S
C1734      C1737   1.451       .  S
C1735      N1742   1.158       .  T
C1736      N1741   1.158       .  T
C1737      N1739   1.157       .  T
C1738      N1740   1.158       .  T
C1743      C1744   1.412       .  A
C1743      C1748   1.411       .  A
C1744      C1745   1.410       .  A
C1744      C1749   1.452       .  S
C1745      C1746   1.417       .  A
C1745      C1752   1.452       .  S
C1746      C1747   1.417       .  A
C1747      C1748   1.409       .  A
C1747      C1750   1.452       .  S
C1748      C1751   1.453       .  S
C1749      N1756   1.158       .  T
C1750      N1755   1.158       .  T
C1751      N1753   1.157       .  T
C1752      N1754   1.157       .  T
C1757      C1758   1.417       .  A
C1757      C1762   1.413       .  A
C1758      C1759   1.412       .  A
C1758      C1763   1.452       .  S
C1759      C1760   1.412       .  A
C1759      C1766   1.451       .  S
C1760      C1761   1.418       .  A
C1761      C1762   1.413       .  A
C1762      C1765   1.451       .  S
C1763      N1770   1.157       .  T
C1764      N1769   1.158       .  T
C1765      N1767   1.158       .  T
C1766      N1768   1.157       .  T
C1771      C1772   1.416       .  A
C1771      C1776   1.412       .  A
C1772      C1773   1.414       .  A
C1772      C1777   1.452       .  S
C1773      C1774   1.417       .  A
C1773      C1780   1.451       .  S
C1774      C1775   1.421       .  A
C1775      C1776   1.413       .  A
C1775      C1778   1.452       .  S
C1776      C1779   1.452       .  S
C1777      N1784   1.158       .  T
C1778      N1783   1.158       .  T
C1779      N1781   1.157       .  T
C1780      N1782   1.158       .  T
C1785      C1786   1.418       .  A
C1785      C1790   1.416       .  A
C1786      C1787   1.413       .  A
C1786      C1791   1.452       .  S
C1787      C1788   1.412       .  A
C1787      C1794   1.451       .  S
C1788      C1789   1.412       .  A
C1789      C1790   1.406       .  A
C1789      C1792   1.454       .  S
C1790      C1793   1.452       .  S
C1791      N1798   1.158       .  T
C1792      N1797   1.157       .  T
C1793      N1795   1.157       .  T
C1799      C1800   1.418       .  A
C1799      C1804   1.416       .  A
C1800      C1801   1.413       .  A
C1800      C1805   1.453       .  S
C1801      C1802   1.415       .  A
C1801      C1808   1.452       .  S
C1802      C1803   1.417       .  A
C1803      C1804   1.415       .  A
C1803      C1806   1.450       .  S
C1804      C1807   1.452       .  S
C1805      N1812   1.157       .  T
C1806      N1811   1.157       .  T
C1807      N1809   1.158       .  T
C1808      N1810   1.157       .  T
C1813      C1814   1.412       .  A
C1814      C1815   1.412   1_565  A
C1814      C1819   1.452       .  S
C1815      C1822   1.453       .  S
C1816      C1817   1.418       .  A
C1817      C1818   1.415   1_545  A
C1817      C1820   1.451       .  S
C1818      C1821   1.453       .  S
C1819      N1826   1.158       .  T
C1820      N1825   1.158       .  T
C1821      N1823   1.157       .  T
C1822      N1824   1.157       .  T
C1827      C1828   1.413       .  A
C1827      C1832   1.412       .  A
C1828      C1829   1.409       .  A
C1828      C1833   1.452       .  S
C1829      C1830   1.411       .  A
C1829      C1836   1.450       .  S
C1830      C1831   1.413       .  A
C1831      C1832   1.408       .  A
C1831      C1834   1.452       .  S
C1833      N1840   1.157       .  T
C1834      N1839   1.157       .  T
C1835      N1837   1.157       .  T
C1836      N1838   1.157       .  T
C1841      C1842   1.417       .  A
C1841      C1846   1.420       .  A
C1842      C1843   1.415       .  A
C1842      C1847   1.451       .  S
C1843      C1844   1.414       .  A
C1843      C1850   1.452       .  S
C1844      C1845   1.411       .  A
C1845      C1846   1.411       .  A
C1845      C1848   1.453       .  S
C1846      C1849   1.452       .  S
C1847      N1854   1.157       .  T
C1848      N1853   1.157       .  T
C1849      N1851   1.157       .  T
C1850      N1852   1.158       .  T
C1855      C1856   1.413       .  A
C1855      C1860   1.413       .  A
C1856      C1857   1.410       .  A
C1856      C1861   1.452       .  S
C1857      C1858   1.416       .  A
C1857      C1864   1.452       .  S
C1858      C1859   1.416       .  A
C1859      C1860   1.408       .  A
C1859      C1862   1.452       .  S
C1860      C1863   1.453       .  S
C1861      N1868   1.157       .  T
C1862      N1867   1.157       .  T
C1863      N1865   1.157       .  T
C1864      N1866   1.157       .  T
C1869      C1870   1.419       .  A
C1869      C1874   1.416       .  A
C1870      C1871   1.410       .  A
C1870      C1875   1.453       .  S
C1871      C1872   1.413       .  A
C1871      C1878   1.453       .  S
C1872      C1873   1.415       .  A
C1873      C1874   1.415       .  A
C1873      C1876   1.451       .  S
C1874      C1877   1.451       .  S
C1875      N1882   1.157       .  T
C1876      N1881   1.157       .  T
C1877      N1879   1.158       .  T
C1878      N1880   1.157       .  T
C1883      C1884   1.419       .  A
C1883      C1888   1.415       .  A
C1884      C1885   1.411       .  A
C1884      C1889   1.454       .  S
C1885      C1886   1.415       .  A
C1885      C1892   1.452       .  S
C1886      C1887   1.420       .  A
C1887      C1888   1.415       .  A
C1887      C1890   1.453       .  S
C1888      C1891   1.451       .  S
C1889      N1896   1.157       .  T
C1890      N1895   1.157       .  T
C1891      N1893   1.158       .  T
C1892      N1894   1.158       .  T
C1897      C1898   1.414       .  A
C1897      C1902   1.412       .  A
C1898      C1903   1.453       .  S
C1899      C1900   1.414       .  A
C1899      C1906   1.453       .  S
C1900      C1901   1.413       .  A
C1901      C1904   1.450       .  S
C1902      C1905   1.450       .  S
C1903      N1910   1.158       .  T
C1904      N1909   1.157       .  T
C1905      N1907   1.157       .  T
C1906      N1908   1.158       .  T
C1911      C1912   1.414       .  A
C1911      C1916   1.415       .  A
C1912      C1913   1.414       .  A
C1912      C1917   1.451       .  S
C1913      C1914   1.415       .  A
C1913      C1920   1.450       .  S
C1914      C1915   1.417       .  A
C1915      C1916   1.409       .  A
C1915      C1918   1.453       .  S
C1916      C1919   1.453       .  S
C1917      N1924   1.157       .  T
C1918      N1923   1.158       .  T
C1919      N1921   1.157       .  T
C1920      N1922   1.157       .  T
C1925      C1926   1.417       .  A
C1925      C1930   1.416       .  A
C1926      C1927   1.415       .  A
C1926      C1931   1.451       .  S
C1927      C1928   1.416       .  A
C1927      C1934   1.451       .  S
C1928      C1929   1.416       .  A
C1929      C1930   1.412       .  A
C1929      C1932   1.453       .  S
C1930      C1933   1.452       .  S
C1931      N1938   1.158       .  T
C1932      N1937   1.158       .  T
C1933      N1935   1.157       .  T
C1934      N1936   1.157       .  T
C1939      C1940   1.418       .  A
C1939      C1944   1.418       .  A
C1940      C1941   1.409       .  A
C1940      C1945   1.453       .  S
C1941      C1942   1.415       .  A
C1941      C1948   1.453       .  S
C1942      C1943   1.416       .  A
C1943      C1944   1.412       .  A
C1943      C1946   1.453       .  S
C1944      C1947   1.452       .  S
C1945      N1952   1.158       .  T
C1946      N1951   1.158       .  T
C1947      N1949   1.157       .  T
C1948      N1950   1.157       .  T
C1953      C1954   1.417       .  A
C1953      C1958   1.415       .  A
C1954      C1955   1.413       .  A
C1954      C1959   1.452       .  S
C1955      C1956   1.416       .  A
C1955      C1962   1.452       .  S
C1956      C1957   1.416       .  A
C1957      C1958   1.412       .  A
C1957      C1960   1.452       .  S
C1958      C1961   1.452       .  S
C1959      N1966   1.158       .  T
C1960      N1965   1.157       .  T
C1961      N1963   1.157       .  T
C1962      N1964   1.157       .  T
C1967      C1968   1.415       .  A
C1967      C1972   1.415       .  A
C1968      C1969   1.415       .  A
C1968      C1973   1.451       .  S
C1969      C1970   1.414       .  A
C1969      C1976   1.450       .  S
C1970      C1971   1.415       .  A
C1971      C1972   1.411       .  A
C1971      C1974   1.453       .  S
C1972      C1975   1.452       .  S
C1973      N1980   1.157       .  T
C1974      N1979   1.158       .  T
C1975      N1977   1.157       .  T
C1976      N1978   1.157       .  T
C1981      C1982   1.415       .  A
C1981      C1986   1.415       .  A
C1982      C1983   1.411       .  A
C1982      C1987   1.453       .  S
C1983      C1984   1.416       .  A
C1983      C1990   1.452       .  S
C1984      C1985   1.415       .  A
C1985      C1986   1.415       .  A
C1985      C1988   1.451       .  S
C1986      C1989   1.450       .  S
C1987      N1994   1.157       .  T
C1988      N1993   1.157       .  T
C1989      N1991   1.157       .  T
C1990      N1992   1.157       .  T
C1995      C1996   1.413       .  A
C1995      C2000   1.411       .  A
C1996      C1997   1.410       .  A
C1996      C2001   1.453       .  S
C1997      C1998   1.417       .  A
C1997      C2004   1.451       .  S
C1998      C1999   1.415       .  A
C1999      C2000   1.408       .  A
C1999      C2002   1.451       .  S
C2000      C2003   1.452       .  S
C2001      N2008   1.158       .  T
C2002      N2007   1.157       .  T
C2004      N2006   1.157       .  T
C2009      C2010   1.416       .  A
C2009      C2014   1.411       .  A
C2010      C2011   1.413       .  A
C2010      C2015   1.452       .  S
C2011      C2012   1.413       .  A
C2011      C2018   1.451       .  S
C2012      C2013   1.418       .  A
C2013      C2014   1.414       .  A
C2013      C2016   1.451       .  S
C2014      C2017   1.450       .  S
C2015      N2022   1.157       .  T
C2016      N2021   1.157       .  T
C2017      N2019   1.157       .  T
C2018      N2020   1.157       .  T
C2023      C2024   1.416       .  A
C2023      C2028   1.415       .  A
C2024      C2025   1.410       .  A
C2024      C2029   1.453       .  S
C2025      C2026   1.415       .  A
C2025      C2032   1.453       .  S
C2026      C2027   1.413       .  A
C2027      C2028   1.414       .  A
C2029      N2036   1.158       .  T
C2030      N2035   1.157       .  T
C2031      N2033   1.157       .  T
C2032      N2034   1.158       .  T
C2037      C2038   1.413       .  A
C2037      C2042   1.413       .  A
C2038      C2039   1.413       .  A
C2038      C2043   1.451       .  S
C2039      C2040   1.414       .  A
C2039      C2046   1.451       .  S
C2040      C2041   1.415       .  A
C2041      C2042   1.409       .  A
C2041      C2044   1.453       .  S
C2042      C2045   1.452       .  S
C2043      N2050   1.157       .  T
C2044      N2049   1.158       .  T
C2045      N2047   1.157       .  T
C2046      N2048   1.157       .  T
C2051      C2052   1.409       .  A
C2051      C2056   1.410       .  A
C2052      C2053   1.408       .  A
C2052      C2057   1.453       .  S
C2053      C2054   1.417       .  A
C2053      C2060   1.451       .  S
C2054      C2055   1.416       .  A
C2055      C2056   1.410       .  A
C2055      C2058   1.452       .  S
C2056      C2059   1.452       .  S
C2057      N2064   1.157       .  T
C2058      N2063   1.157       .  T
C2059      N2061   1.157       .  T
C2060      N2062   1.157       .  T
C2065      C2066   1.416       .  A
C2065      C2070   1.417       .  A
C2066      C2067   1.415       .  A
C2066      C2071   1.451       .  S
C2067      C2068   1.416       .  A
C2067      C2074   1.451       .  S
C2068      C2069   1.415       .  A
C2069      C2070   1.411       .  A
C2069      C2072   1.453       .  S
C2070      C2073   1.452       .  S
C2071      N2078   1.157       .  T
C2072      N2077   1.157       .  T
C2073      N2075   1.158       .  T
C2074      N2076   1.158       .  T
C2079      C2080   1.417       .  A
C2079      C2084   1.414       .  A
C2080      C2081   1.417       .  A
C2080      C2085   1.452       .  S
C2081      C2082   1.418       .  A
C2081      C2088   1.451       .  S
C2082      C2083   1.419       .  A
C2083      C2084   1.412       .  A
C2083      C2086   1.452       .  S
C2084      C2087   1.453       .  S
C2086      N2091   1.157       .  T
C2087      N2089   1.158       .  T
C2088      N2090   1.158       .  T
C2093      C2094   1.417       .  A
C2093      C2098   1.419       .  A
C2094      C2095   1.409       .  A
C2094      C2099   1.453       .  S
C2095      C2096   1.414       .  A
C2095      C2102   1.452       .  S
C2096      C2097   1.414       .  A
C2097      C2098   1.409       .  A
C2097      C2100   1.454       .  S
C2098      C2101   1.452       .  S
C2099      N2106   1.157       .  T
C2100      N2105   1.157       .  T
C2101      N2103   1.158       .  T
C2102      N2104   1.158       .  T
C2107      C2108   1.418       .  A
C2107      C2112   1.412       .  A
C2108      C2109   1.414       .  A
C2108      C2113   1.453       .  S
C2109      C2110   1.417       .  A
C2109      C2116   1.452       .  S
C2110      C2111   1.421       .  A
C2111      C2112   1.413       .  A
C2111      C2114   1.453       .  S
C2112      C2115   1.451       .  S
C2113      N2120   1.157       .  T
C2114      N2119   1.157       .  T
C2115      N2117   1.158       .  T
C2116      N2118   1.158       .  T
C2121      C2122   1.414       .  A
C2121      C2126   1.411       .  A
C2122      C2123   1.413       .  A
C2122      C2127   1.452       .  S
C2123      C2124   1.416       .  A
C2123      C2130   1.451       .  S
C2124      C2125   1.421       .  A
C2125      C2126   1.413       .  A
C2125      C2128   1.452       .  S
C2126      C2129   1.452       .  S
C2127      N2134   1.157       .  T
C2128      N2133   1.158       .  T
C2129      N2131   1.157       .  T
C2130      N2132   1.157       .  T
C2135      C2136   1.412       .  A
C2135      C2140   1.412       .  A
C2136      C2137   1.410       .  A
C2136      C2141   1.453       .  S
C2137      C2138   1.417       .  A
C2137      C2144   1.451       .  S
C2138      C2139   1.416       .  A
C2139      C2140   1.412       .  A
C2139      C2142   1.451       .  S
C2140      C2143   1.452       .  S
C2141      N2148   1.157       .  T
C2142      N2147   1.157       .  T
C2143      N2145   1.157       .  T
C2144      N2146   1.157       .  T
C2149      C2150   1.416       .  A
C2149      C2154   1.418       .  A
C2150      C2151   1.407       .  A
C2150      C2155   1.454   1_556  S
C2151      C2152   1.412       .  A
C2151      C2158   1.452       .  S
C2152      C2153   1.411       .  A
C2153      C2154   1.409       .  A
C2153      C2156   1.453       .  S
C2154      C2157   1.451       .  S
C2155      N2162   1.157       .  T
C2156      N2161   1.157       .  T
C2157      N2159   1.158       .  T
C2158      N2160   1.158       .  T
C2163      C2164   1.414       .  A
C2163      C2168   1.416       .  A
C2164      C2165   1.412       .  A
C2164      C2169   1.451       .  S
C2165      C2166   1.416       .  A
C2165      C2172   1.452       .  S
C2166      C2167   1.416       .  A
C2167      C2168   1.409       .  A
C2167      C2170   1.453       .  S
C2168      C2171   1.453       .  S
C2169      N2176   1.157       .  T
C2170      N2175   1.158       .  T
C2171      N2173   1.157       .  T
C2172      N2174   1.157       .  T
C2177      C2178   1.414       .  A
C2177      C2182   1.415       .  A
C2178      C2179   1.410       .  A
C2178      C2183   1.452       .  S
C2179      C2180   1.414       .  A
C2179      C2186   1.451       .  S
C2180      C2181   1.416       .  A
C2181      C2182   1.412       .  A
C2181      C2184   1.452       .  S
C2182      C2185   1.452       .  S
C2183      N2190   1.157       .  T
C2184      N2189   1.158       .  T
C2185      N2187   1.158       .  T
C2186      N2188   1.157       .  T
C2191      C2196   1.422       .  A
C2192      C2193   1.415   1_545  A
C2192      C2197   1.452       .  S
C2193      C2194   1.410       .  A
C2193      C2200   1.453       .  S
C2195      C2196   1.412   1_565  A
C2195      C2198   1.453       .  S
C2196      C2199   1.451       .  S
C2197      N2204   1.158       .  T
C2198      N2203   1.157       .  T
C2199      N2201   1.157       .  T
C2200      N2202   1.158       .  T
C2205      C2206   1.416       .  A
C2205      C2210   1.416       .  A
C2206      C2207   1.414   1_455  A
C2206      C2211   1.450       .  S
C2207      C2208   1.412       .  A
C2207      C2214   1.451       .  S
C2208      C2209   1.414       .  A
C2209      C2210   1.408   1_655  A
C2209      C2212   1.454       .  S
C2210      C2213   1.453       .  S
C2211      N2218   1.157       .  T
C2212      N2217   1.157       .  T
C2213      N2215   1.157       .  T
C2214      N2216   1.157       .  T
C2219      C2220   1.417       .  A
C2219      C2224   1.417       .  A
C2220      C2221   1.412       .  A
C2220      C2225   1.452       .  S
C2221      C2222   1.413       .  A
C2221      C2228   1.452       .  S
C2222      C2223   1.412       .  A
C2223      C2224   1.411       .  A
C2223      C2226   1.453       .  S
C2224      C2227   1.451       .  S
C2225      N2232   1.157       .  T
C2226      N2231   1.157       .  T
C2227      N2229   1.158       .  T
C2228      N2230   1.158       .  T
C2233      C2234   1.413       .  A
C2233      C2238   1.417       .  A
C2234      C2235   1.413       .  A
C2234      C2239   1.451       .  S
C2235      C2236   1.417       .  A
C2235      C2242   1.453       .  S
C2236      C2237   1.413       .  A
C2237      C2238   1.414       .  A
C2237      C2240   1.451       .  S
C2239      N2246   1.157       .  T
C2240      N2245   1.157       .  T
C2241      N2243   1.157       .  T
C2242      N2244   1.158       .  T
C2247      C2248   1.415       .  A
C2247      C2252   1.414       .  A
C2248      C2249   1.414   1_655  A
C2248      C2253   1.451       .  S
C2249      C2250   1.413       .  A
C2249      C2256   1.451       .  S
C2250      C2251   1.414       .  A
C2251      C2252   1.407   1_455  A
C2251      C2254   1.453       .  S
C2252      C2255   1.454       .  S
C2253      N2260   1.157       .  T
C2254      N2259   1.157       .  T
C2255      N2257   1.157       .  T
C2256      N2258   1.157       .  T
C2261      C2262   1.416       .  A
C2261      C2266   1.415       .  A
C2262      C2263   1.408   1_565  A
C2262      C2267   1.453       .  S
C2263      C2264   1.412       .  A
C2263      C2270   1.453       .  S
C2264      C2265   1.411       .  A
C2265      C2266   1.412   1_545  A
C2265      C2268   1.451       .  S
C2266      C2269   1.451       .  S
C2267      N2274   1.158       .  T
C2268      N2273   1.157       .  T
C2269      N2271   1.157       .  T
C2270      N2272   1.157       .  T
C2275      C2276   1.418       .  A
C2275      C2280   1.417       .  A
C2276      C2277   1.410       .  A
C2276      C2281   1.452       .  S
C2277      C2278   1.411       .  A
C2277      C2284   1.453       .  S
C2278      C2279   1.409       .  A
C2279      C2280   1.407       .  A
C2279      C2282   1.453       .  S
C2280      C2283   1.452       .  S
C2282      N2287   1.157       .  T
C2283      N2285   1.158       .  T
C2284      N2286   1.158       .  T
C2289      C2290   1.412       .  A
C2289      C2294   1.412       .  A
C2290      C2291   1.411       .  A
C2290      C2295   1.453       .  S
C2291      C2292   1.420       .  A
C2291      C2298   1.452       .  S
C2292      C2293   1.418       .  A
C2293      C2294   1.415       .  A
C2293      C2296   1.451       .  S
C2294      C2297   1.451       .  S
C2295      N2302   1.157       .  T
C2296      N2301   1.157       .  T
C2297      N2299   1.157       .  T
C2298      N2300   1.158       .  T
C2303      C2304   1.413       .  A
C2303      C2308   1.413       .  A
C2304      C2305   1.410       .  A
C2304      C2309   1.453       .  S
C2305      C2306   1.416       .  A
C2305      C2312   1.452       .  S
C2306      C2307   1.416       .  A
C2307      C2308   1.409       .  A
C2307      C2310   1.452       .  S
C2308      C2311   1.452       .  S
C2309      N2316   1.157       .  T
C2310      N2315   1.157       .  T
C2311      N2313   1.157       .  T
C2312      N2314   1.157       .  T
C2317      C2318   1.414       .  A
C2317      C2322   1.417       .  A
C2318      C2319   1.412       .  A
C2318      C2323   1.450       .  S
C2319      C2320   1.414       .  A
C2319      C2326   1.451       .  S
C2320      C2321   1.413       .  A
C2321      C2322   1.408       .  A
C2321      C2324   1.453       .  S
C2322      C2325   1.453       .  S
C2323      N2330   1.157       .  T
C2324      N2329   1.158       .  T
C2325      N2327   1.157       .  T
C2326      N2328   1.157       .  T
C2331      C2332   1.414       .  A
C2331      C2336   1.413       .  A
C2332      C2333   1.414       .  A
C2332      C2337   1.450       .  S
C2333      C2334   1.413       .  A
C2333      C2340   1.451       .  S
C2334      C2335   1.415       .  A
C2335      C2336   1.409       .  A
C2335      C2338   1.453       .  S
C2336      C2339   1.453       .  S
C2337      N2344   1.157       .  T
C2338      N2343   1.158       .  T
C2339      N2341   1.157       .  T
C2340      N2342   1.157       .  T
C2345      C2346   1.416       .  A
C2345      C2350   1.414       .  A
C2346      C2347   1.412       .  A
C2346      C2351   1.451       .  S
C2347      C2348   1.415       .  A
C2347      C2354   1.452       .  S
C2348      C2349   1.415       .  A
C2349      C2350   1.412       .  A
C2349      C2352   1.452       .  S
C2350      C2353   1.451       .  S
C2351      N2358   1.157       .  T
C2352      N2357   1.158       .  T
C2353      N2355   1.157       .  T
C2354      N2356   1.157       .  T
C2359      C2360   1.417       .  A
C2359      C2364   1.418       .  A
C2360      C2361   1.412       .  A
C2360      C2365   1.452       .  S
C2361      C2362   1.414       .  A
C2361      C2368   1.452       .  S
C2362      C2363   1.417       .  A
C2363      C2364   1.416       .  A
C2363      C2366   1.451       .  S
C2364      C2367   1.452       .  S
C2365      N2372   1.158       .  T
C2366      N2371   1.158       .  T
C2367      N2369   1.157       .  T
C2368      N2370   1.157       .  T
C2373      C2374   1.410       .  A
C2373      C2378   1.411       .  A
C2374      C2375   1.414       .  A
C2374      C2379   1.451       .  S
C2375      C2376   1.417       .  A
C2375      C2382   1.450       .  S
C2376      C2377   1.416       .  A
C2377      C2378   1.410       .  A
C2377      C2380   1.451       .  S
C2378      C2381   1.453       .  S
C2379      N2386   1.157       .  T
C2380      N2385   1.157       .  T
C2381      N2383   1.157       .  T
C2382      N2384   1.157       .  T
C2387      C2388   1.414       .  A
C2387      C2392   1.416       .  A
C2388      C2389   1.415       .  A
C2388      C2393   1.451       .  S
C2389      C2390   1.416       .  A
C2389      C2396   1.451       .  S
C2390      C2391   1.416       .  A
C2391      C2392   1.411       .  A
C2391      C2394   1.453   1_556  S
C2392      C2395   1.453       .  S
C2393      N2400   1.157       .  T
C2394      N2399   1.158       .  T
C2395      N2397   1.158   1_556  T
C2396      N2398   1.157       .  T
C2401      C2402   1.414       .  A
C2401      C2406   1.415       .  A
C2402      C2403   1.414       .  A
C2402      C2407   1.451       .  S
C2403      C2404   1.416       .  A
C2403      C2410   1.450       .  S
C2404      C2405   1.417       .  A
C2405      C2406   1.411       .  A
C2405      C2408   1.453       .  S
C2406      C2409   1.453       .  S
C2407      N2414   1.157       .  T
C2410      N2412   1.157       .  T
C2415      C2416   1.413       .  A
C2415      C2420   1.411       .  A
C2416      C2417   1.409       .  A
C2416      C2421   1.454       .  S
C2417      C2418   1.418       .  A
C2417      C2424   1.453       .  S
C2418      C2419   1.418       .  A
C2419      C2420   1.413       .  A
C2419      C2422   1.451       .  S
C2421      N2428   1.158       .  T
C2422      N2427   1.157       .  T
C2423      N2425   1.157       .  T
C2424      N2426   1.158       .  T
C2429      C2430   1.418       .  A
C2429      C2434   1.415       .  A
C2430      C2431   1.414       .  A
C2430      C2435   1.452       .  S
C2431      C2432   1.413       .  A
C2431      C2438   1.451       .  S
C2432      C2433   1.416       .  A
C2433      C2434   1.414       .  A
C2433      C2436   1.452       .  S
C2434      C2437   1.451       .  S
C2435      N2442   1.158       .  T
C2436      N2441   1.157       .  T
C2437      N2439   1.157       .  T
C2438      N2440   1.157       .  T
C2443      C2444   1.409       .  A
C2444      C2445   1.411       .  A
C2444      C2449   1.452       .  S
C2445      C2452   1.452       .  S
C2446      C2447   1.416       .  A
C2447      C2448   1.414   1_556  A
C2447      C2450   1.450       .  S
C2448      C2451   1.451       .  S
C2449      N2456   1.158       .  T
C2450      N2455   1.157       .  T
C2451      N2453   1.157       .  T
C2452      N2454   1.157       .  T
C2457      C2458   1.418       .  A
C2457      C2462   1.417       .  A
C2458      C2459   1.411   1_655  A
C2458      C2463   1.452       .  S
C2459      C2460   1.416       .  A
C2459      C2466   1.454       .  S
C2460      C2461   1.416       .  A
C2461      C2462   1.415   1_455  A
C2461      C2464   1.451       .  S
C2462      C2465   1.452       .  S
C2463      N2470   1.158       .  T
C2464      N2469   1.158       .  T
C2465      N2467   1.157       .  T
C2466      N2468   1.157       .  T
C2471      C2472   1.416       .  A
C2471      C2476   1.418       .  A
C2472      C2473   1.410   1_655  A
C2472      C2477   1.453       .  S
C2473      C2474   1.415       .  A
C2473      C2480   1.452       .  S
C2474      C2475   1.412       .  A
C2475      C2476   1.415   1_455  A
C2475      C2478   1.451       .  S
C2476      C2479   1.450       .  S
C2477      N2484   1.157       .  T
C2478      N2483   1.157       .  T
C2479      N2481   1.157       .  T
C2480      N2482   1.157       .  T
C2485      C2486   1.418       .  A
C2485      C2490   1.418       .  A
C2486      C2487   1.411       .  A
C2486      C2491   1.451       .  S
C2487      C2488   1.413       .  A
C2487      C2494   1.453       .  S
C2488      C2489   1.415       .  A
C2489      C2490   1.409       .  A
C2489      C2492   1.453       .  S
C2490      C2493   1.454       .  S
C2491      N2498   1.158       .  T
C2492      N2497   1.158       .  T
C2493      N2495   1.157       .  T
C2494      N2496   1.157       .  T
C2499      C2500   1.417       .  A
C2499      C2504   1.420       .  A
C2500      C2501   1.415       .  A
C2500      C2505   1.451       .  S
C2501      C2502   1.414       .  A
C2501      C2508   1.452       .  S
C2502      C2503   1.410       .  A
C2503      C2504   1.411       .  A
C2503      C2506   1.452       .  S
C2505      N2512   1.157       .  T
C2506      N2511   1.157       .  T
C2507      N2509   1.157   1_554  T
C2508      N2510   1.157       .  T
C2513      C2514   1.410       .  A
C2513      C2518   1.412       .  A
C2514      C2515   1.410       .  A
C2514      C2519   1.452       .  S
C2515      C2516   1.418       .  A
C2515      C2522   1.453       .  S
C2516      C2517   1.415       .  A
C2517      C2518   1.413       .  A
C2517      C2520   1.451       .  S
C2518      C2521   1.451       .  S
C2519      N2526   1.157       .  T
C2520      N2525   1.157       .  T
C2521      N2523   1.157       .  T
C2522      N2524   1.158       .  T
C2527      C2528   1.418       .  A
C2527      C2532   1.415       .  A
C2528      C2529   1.409       .  A
C2528      C2533   1.453       .  S
C2529      C2530   1.415       .  A
C2529      C2536   1.454       .  S
C2530      C2531   1.413       .  A
C2531      C2532   1.413       .  A
C2531      C2534   1.451       .  S
C2532      C2535   1.450       .  S
C2533      N2540   1.158       .  T
C2534      N2539   1.157       .  T
C2535      N2537   1.157       .  T
C2536      N2538   1.158       .  T
C2541      C2542   1.416       .  A
C2541      C2546   1.415       .  A
C2542      C2543   1.412       .  A
C2542      C2547   1.452       .  S
C2543      C2544   1.416       .  A
C2543      C2550   1.453       .  S
C2544      C2545   1.417       .  A
C2545      C2546   1.417       .  A
C2545      C2548   1.450       .  S
C2546      C2549   1.451       .  S
C2547      N2554   1.158       .  T
C2548      N2553   1.157       .  T
C2549      N2551   1.157       .  T
C2550      N2552   1.157       .  T
C2555      C2556   1.410       .  A
C2555      C2560   1.410       .  A
C2556      C2557   1.411       .  A
C2556      C2561   1.452       .  S
C2557      C2558   1.417       .  A
C2558      C2559   1.416       .  A
C2559      C2560   1.409       .  A
C2559      C2562   1.451       .  S
C2560      C2563   1.453       .  S
C2561      N2568   1.158       .  T
C2562      N2567   1.157       .  T
C2563      N2565   1.157       .  T
C2564      N2566   1.157       .  T
C2569      C2570   1.415       .  A
C2569      C2574   1.415       .  A
C2570      C2571   1.414       .  A
C2571      C2572   1.411       .  A
C2572      C2573   1.412       .  A
C2573      C2574   1.405       .  A
C2573      C2576   1.454       .  S
C2574      C2577   1.453       .  S
C2575      N2582   1.157       .  T
C2576      N2581   1.157       .  T
C2577      N2579   1.157       .  T
C2578      N2580   1.157       .  T
C2583      C2584   1.415       .  A
C2583      C2588   1.412       .  A
C2584      C2585   1.410       .  A
C2584      C2589   1.451       .  S
C2585      C2586   1.412       .  A
C2585      C2592   1.451       .  S
C2586      C2587   1.418       .  A
C2587      C2588   1.414       .  A
C2588      C2591   1.451       .  S
C2589      N2596   1.157       .  T
C2590      N2595   1.158       .  T
C2591      N2593   1.157       .  T
C2592      N2594   1.157       .  T
C2597      C2598   1.412       .  A
C2597      C2602   1.412       .  A
C2598      C2599   1.409       .  A
C2598      C2603   1.453       .  S
C2599      C2600   1.417       .  A
C2599      C2606   1.451       .  S
C2600      C2601   1.418       .  A
C2601      C2602   1.410       .  A
C2601      C2604   1.451       .  S
C2602      C2605   1.453       .  S
C2603      N2610   1.158       .  T
C2604      N2609   1.157       .  T
C2605      N2607   1.157       .  T
C2606      N2608   1.157       .  T
C2611      C2612   1.415       .  A
C2611      C2616   1.416       .  A
C2612      C2613   1.413       .  A
C2612      C2617   1.450       .  S
C2613      C2614   1.412       .  A
C2613      C2620   1.451       .  S
C2614      C2615   1.415       .  A
C2615      C2616   1.411       .  A
C2615      C2618   1.453       .  S
C2616      C2619   1.452       .  S
C2617      N2624   1.157       .  T
C2618      N2623   1.158       .  T
C2619      N2621   1.158       .  T
C2620      N2622   1.157       .  T
