geometry optimzed in LAMMPS
_audit_creation_date              2020-12-01 
_audit_creation_method            'lammps2cif' 
_symmetry_space_group_name_H-M    'P1' 
_symmetry_Int_Tables_number       1 
_symmetry_cell_setting            triclinic 
loop_ 
_symmetry_equiv_pos_as_xyz 
  x,y,z 
_cell_length_a                    123.5381818 
_cell_length_b                    123.44007172621166 
_cell_length_c                    32.077950403449705 
_cell_angle_alpha                 90.03899388805938 
_cell_angle_beta                  90.18323392028675 
_cell_angle_gamma                 120.21823072282977 
loop_ 
_atom_site_label 
_atom_site_type_symbol 
_atom_site_fract_x 
_atom_site_fract_y 
_atom_site_fract_z 
_atom_site_charge 
In1        In  0.25613597  0.88542567  0.58035420     1.36900
C2          C  0.25315586  0.89206654  0.65652834     0.77500
O3          O  0.23580932  0.87187242  0.58837301    -0.61000
O4          O  0.24692262  0.86467798  0.56444276    -0.51900
C5          C  0.25361719  0.89430775  0.50732288     0.70100
O6          O  0.25178460  0.89801463  0.54186869    -0.46800
C7          C  0.28034101  0.89305768  0.59159702     0.74800
O8          O  0.25260006  0.89763811  0.62421756    -0.58600
O9          O  0.27197081  0.88161024  0.59215231    -0.48700
O10         O  0.25514377  0.88316678  0.64945593    -0.55000
C11         C  0.23616647  0.86242086  0.57546055     0.85000
O12         O  0.25711749  0.88633495  0.51028271    -0.56900
O13         O  0.27637321  0.90036936  0.58225581    -0.60200
In14       In  0.41147498  0.96649925  0.75795798     1.36900
C15         C  0.41772988  0.97743351  0.68353245     0.77500
O16         O  0.43176498  0.97315671  0.76491240    -0.61000
O17         O  0.41918109  0.95346654  0.76521613    -0.51900
C18         C  0.41160626  0.97519119  0.83440241     0.70100
O19         O  0.41540171  0.98218186  0.80267052    -0.46800
C20         C  0.38734065  0.95167897  0.73972048     0.74800
O21         O  0.41715436  0.98311308  0.71555012    -0.58600
O22         O  0.39463664  0.94738609  0.74474683    -0.48700
O23         O  0.41523330  0.96634763  0.69008244    -0.55000
C24         C  0.43042712  0.96234823  0.76671371     0.85000
O25         O  0.40742532  0.96372706  0.82665889    -0.56900
O26         O  0.39233602  0.96331160  0.74607036    -0.60200
In27       In  0.44740986  0.03681128  0.25802801     1.36900
C28         C  0.44226793  0.02753077  0.33487768     0.77500
O29         O  0.46075123  0.02971358  0.25634947    -0.61000
O30         O  0.46829041  0.04934647  0.24926248    -0.51900
C31         C  0.43921401  0.02656957  0.18300442     0.70100
O32         O  0.43478145  0.02044715  0.21631456    -0.46800
C33         C  0.43791277  0.05190051  0.26602748     0.74800
O34         O  0.43635982  0.02105664  0.30336431    -0.58600
O35         O  0.44959345  0.05608597  0.26729685    -0.48700
O36         O  0.45074833  0.03856171  0.32664456    -0.55000
C37         C  0.47038478  0.04031515  0.25108921     0.85000
O38         O  0.44755282  0.03789338  0.18849653    -0.56900
O39         O  0.43142350  0.04029878  0.25894439    -0.60200
In40       In  0.36524968  0.11351344  0.39289057     1.36900
C41         C  0.35507025  0.10689621  0.31710475     0.77500
O42         O  0.35677199  0.12567219  0.39451221    -0.61000
O43         O  0.37658188  0.13473640  0.39893561    -0.51900
C44         C  0.35626337  0.10537827  0.46915129     0.70100
O45         O  0.34965695  0.10108516  0.43657139    -0.46800
C46         C  0.38174915  0.10586010  0.38252659     0.74800
O47         O  0.34912036  0.10137293  0.34971424    -0.58600
O48         O  0.38500567  0.11733722  0.38495357    -0.48700
O49         O  0.36608081  0.11575517  0.32365574    -0.55000
C50         C  0.36695930  0.13587701  0.39807397     0.85000
O51         O  0.36754955  0.11353901  0.46244833    -0.56900
O52         O  0.37016609  0.09841586  0.38726397    -0.60200
In53       In  0.22100628  0.92054344  0.08015805     1.36900
C54         C  0.22684973  0.91611124  0.00452127     0.77500
O55         O  0.20702587  0.90008095  0.08135425    -0.61000
O56         O  0.20017601  0.91263652  0.08905845    -0.51900
C57         C  0.22994463  0.91845542  0.15375041     0.70100
O58         O  0.23391813  0.91685457  0.11941110    -0.46800
C59         C  0.22954307  0.94500763  0.06891694     0.74800
O60         O  0.23243840  0.91571513  0.03700444    -0.58600
O61         O  0.21803165  0.93691380  0.06728389    -0.48700
O62         O  0.21828575  0.91858281  0.01113961    -0.55000
C63         C  0.19761850  0.90137587  0.08621119     0.85000
O64         O  0.22159809  0.92145935  0.15033512    -0.56900
O65         O  0.23646083  0.94065270  0.07916254    -0.60200
In66       In  0.29475266  0.07396099  0.89050186     1.36900
C67         C  0.30448418  0.07901543  0.96714373     0.77500
O68         O  0.30203758  0.09446479  0.88582731    -0.61000
O69         O  0.28230267  0.08238198  0.88280293    -0.51900
C70         C  0.30454776  0.07495577  0.81527609     0.70100
O71         O  0.31102781  0.07808366  0.84833827    -0.46800
C72         C  0.27897737  0.04968753  0.90487418     0.74800
O73         O  0.31052523  0.07861770  0.93595737    -0.58600
O74         O  0.27521959  0.05734569  0.89799562    -0.48700
O75         O  0.29365064  0.07699401  0.95868541    -0.55000
C76         C  0.29142497  0.09351977  0.88257563     0.85000
O77         O  0.29304404  0.07095568  0.82106290    -0.56900
O78         O  0.29066839  0.05434553  0.90164545    -0.60200
In79       In  0.69961143  0.92321698  0.05602988     1.36900
C80         C  0.68985509  0.92008362  0.97995859     0.77500
O81         O  0.70461924  0.94332769  0.05950033    -0.61000
O82         O  0.71914672  0.93962382  0.04468710    -0.51900
C83         C  0.68787655  0.92019068  0.12842734     0.70100
O84         O  0.68262327  0.91912769  0.09361718    -0.46800
C85         C  0.70263916  0.90330970  0.06049511     0.74800
O86         O  0.68375470  0.91936448  0.01239082    -0.58600
O87         O  0.71137913  0.91419643  0.06999518    -0.48700
O88         O  0.70087548  0.92238714  0.98672303    -0.55000
C89         C  0.71589901  0.94775861  0.04920095     0.85000
O90         O  0.69923300  0.92311453  0.12604649    -0.56900
O91         O  0.69264824  0.90282842  0.04900612    -0.60200
In92       In  0.77901405  0.07998057  0.90615704     1.36900
C93         C  0.77299973  0.08368203  0.98267418     0.77500
O94         O  0.76432175  0.05976809  0.91036853    -0.61000
O95         O  0.78328035  0.06434759  0.91597229    -0.51900
C96         C  0.76990813  0.08081061  0.83100744     0.70100
O97         O  0.76610281  0.08321660  0.86436461    -0.46800
C98         C  0.80154197  0.10043545  0.89987568     0.74800
O99         O  0.76685815  0.08342001  0.95067291    -0.58600
O100        O  0.79996016  0.08955193  0.89534445    -0.48700
O101        O  0.78207335  0.08201895  0.97519493    -0.55000
C102        C  0.77186676  0.05588220  0.91676313     0.85000
O103        O  0.77816093  0.07777633  0.83639221    -0.56900
O104        O  0.79164230  0.10067291  0.90709393    -0.60200
In105      In  0.74137333  0.11343910  0.40743536     1.36900
C106        C  0.74621133  0.10796842  0.33139474     0.77500
O107        O  0.72155077  0.09781924  0.39987213    -0.61000
O108        O  0.72490642  0.11644466  0.39805618    -0.51900
C109        C  0.74181300  0.10499062  0.48414317     0.70100
O110        O  0.74409251  0.10071187  0.45158240    -0.46800
C111        C  0.76125175  0.13641517  0.41434970     0.74800
O112        O  0.74676755  0.10243045  0.36381957    -0.58600
O113        O  0.75020793  0.13452950  0.41208576    -0.48700
O114        O  0.74327090  0.11620861  0.33827386    -0.55000
C115        C  0.71701477  0.10487614  0.39463033     0.85000
O116        O  0.73904132  0.11337831  0.47722341    -0.56900
O117        O  0.76195863  0.12657772  0.41348264    -0.60200
In118      In  0.58653020  0.03054819  0.22821170     1.36900
C119        C  0.58235088  0.01942544  0.30216933     0.77500
O120        O  0.60672649  0.03593533  0.22869495    -0.61000
O121        O  0.60247373  0.05007178  0.24380015    -0.51900
C122        C  0.58471385  0.02102593  0.15226608     0.70100
O123        O  0.58441720  0.01519672  0.18498511    -0.46800
C124        C  0.56648405  0.03320515  0.22350450     0.74800
O125        O  0.58289190  0.01416069  0.26908463    -0.58600
O126        O  0.57750873  0.04247336  0.22097930    -0.48700
O127        O  0.58370875  0.03014993  0.29694303    -0.55000
C128        C  0.61078356  0.04701805  0.24094110     0.85000
O129        O  0.58639784  0.03187102  0.15847934    -0.56900
O130        O  0.56587476  0.02275339  0.22795962    -0.60200
In131      In  0.55195224  0.96346091  0.73015963     1.36900
C132        C  0.55743689  0.97517826  0.65704959     0.77500
O133        O  0.56584647  0.95740841  0.71901801    -0.61000
O134        O  0.54666918  0.94343568  0.71483058    -0.51900
C135        C  0.56175844  0.97186232  0.80535310     0.70100
O136        O  0.56633573  0.97815801  0.77254124    -0.46800
C137        C  0.53032271  0.96257668  0.74202963     0.74800
O138        O  0.56496476  0.97920292  0.68750899    -0.58600
O139        O  0.53099072  0.95269584  0.73899729    -0.48700
O140        O  0.54722303  0.96530442  0.66425464    -0.55000
C141        C  0.55793798  0.94614910  0.71107344     0.85000
O142        O  0.55235136  0.96110546  0.79947575    -0.56900
O143        O  0.54071944  0.97266295  0.74032952    -0.60200
In144      In  0.62932003  0.88767039  0.55650201     1.36900
C145        C  0.63900953  0.89460739  0.63249702     0.77500
O146        O  0.62450619  0.90279770  0.55617132    -0.61000
O147        O  0.60973117  0.88422162  0.56693843    -0.51900
C148        C  0.64057167  0.89581832  0.48287034     0.70100
O149        O  0.64645904  0.89897070  0.51708624    -0.46800
C150        C  0.62544296  0.86450982  0.55336899     0.74800
O151        O  0.64482537  0.90059431  0.60033865    -0.58600
O152        O  0.61684948  0.86690179  0.54512033    -0.48700
O153        O  0.62841176  0.88516490  0.62534668    -0.55000
C154        C  0.61309738  0.89570624  0.56471199     0.85000
O155        O  0.62889470  0.88866037  0.48650377    -0.56900
O156        O  0.63583756  0.87395421  0.56265882    -0.60200
In157      In  0.74724677  0.63056640  0.42641246     1.36900
C158        C  0.75321588  0.64312410  0.35497430     0.77500
O159        O  0.76768825  0.63799206  0.43727363    -0.61000
O160        O  0.75621218  0.61838585  0.42928423    -0.51900
C161        C  0.74649467  0.64017727  0.50027932     0.70100
O162        O  0.75013002  0.64650127  0.46725134    -0.46800
C163        C  0.72337674  0.61389533  0.40811375     0.74800
O164        O  0.75196281  0.64764334  0.38863053    -0.58600
O165        O  0.73122679  0.61060074  0.41772293    -0.48700
O166        O  0.75145518  0.63216734  0.35798281    -0.55000
C167        C  0.76713533  0.62754497  0.43500025     0.85000
O168        O  0.74295270  0.62870455  0.49553972    -0.56900
O169        O  0.72767384  0.62555251  0.40965637    -0.60200
In170      In  0.59315010  0.55424783  0.24661654     1.36900
C171        C  0.59049742  0.56308918  0.31907521     0.77500
O172        O  0.57244914  0.54250500  0.24933913    -0.61000
O173        O  0.58262594  0.53310687  0.23901014    -0.51900
C174        C  0.59154889  0.56184122  0.17023712     0.70100
O175        O  0.58987703  0.56654601  0.20285875    -0.46800
C176        C  0.61706843  0.56070318  0.25784067     0.74800
O177        O  0.59117077  0.56844177  0.28484385    -0.58600
O178        O  0.60820226  0.54975251  0.26535879    -0.48700
O179        O  0.59126386  0.55331953  0.31597077    -0.55000
C180        C  0.57203333  0.53221931  0.24342833     0.85000
O181        O  0.59440769  0.55349444  0.17689456    -0.56900
O182        O  0.61363820  0.56790262  0.24255924    -0.60200
In183      In  0.63378388  0.74744946  0.57120420     1.36900
C184        C  0.64673104  0.75392539  0.64269788     0.77500
O185        O  0.64099700  0.76771223  0.56098004    -0.61000
O186        O  0.62137097  0.75618392  0.56862619    -0.51900
C187        C  0.64207920  0.74761497  0.49417922     0.70100
O188        O  0.64889366  0.75026398  0.52626691    -0.46800
C189        C  0.61791614  0.72323700  0.58748724     0.74800
O190        O  0.65143950  0.75337250  0.60845785    -0.58600
O191        O  0.61425748  0.73106366  0.58302273    -0.48700
O192        O  0.63544750  0.75120558  0.64013702    -0.55000
C193        C  0.63051424  0.76707771  0.56221625     0.85000
O194        O  0.63078460  0.74421998  0.50171451    -0.56900
O195        O  0.62951533  0.72777327  0.58216219    -0.60200
In196      In  0.56113648  0.59188275  0.74492799     1.36900
C197        C  0.56867257  0.58762889  0.67251060     0.77500
O198        O  0.54816382  0.57129276  0.73981411    -0.61000
O199        O  0.54005972  0.58267665  0.75023128    -0.51900
C200        C  0.56830476  0.59026367  0.82235045     0.70100
O201        O  0.57317614  0.58856242  0.79030009    -0.46800
C202        C  0.56911762  0.61612595  0.73174607     0.74800
O203        O  0.57373390  0.58757513  0.70677140    -0.58600
O204        O  0.55765309  0.60783715  0.73042835    -0.48700
O205        O  0.55989150  0.58998443  0.67557108    -0.55000
C206        C  0.53828312  0.57177291  0.74413955     0.85000
O207        O  0.56000197  0.59308713  0.81460840    -0.56900
O208        O  0.57628428  0.61204196  0.74180803    -0.60200
In209      In  0.70465700  0.78279535  0.07316293     1.36900
C210        C  0.69348735  0.77656265  0.99860468     0.77500
O211        O  0.69773148  0.79624510  0.07971982    -0.61000
O212        O  0.71740484  0.80390670  0.07688798    -0.51900
C213        C  0.69526947  0.77438611  0.14894884     0.70100
O214        O  0.68868120  0.77084269  0.11618129    -0.46800
C215        C  0.72022317  0.77407488  0.06096089     0.74800
O216        O  0.68807245  0.77092080  0.03169195    -0.58600
O217        O  0.72406202  0.78564573  0.06480452    -0.48700
O218        O  0.70456554  0.78541737  0.00388115    -0.55000
C219        C  0.70840017  0.80598128  0.07985240     0.85000
O220        O  0.70675570  0.78196891  0.14271881    -0.56900
O221        O  0.70856229  0.76707967  0.06527697    -0.60200
In222      In  0.77775810  0.69863944  0.92572606     1.36900
C223        C  0.77150319  0.68836807  0.00075286     0.77500
O224        O  0.79040513  0.69089790  0.93145700    -0.61000
O225        O  0.79854798  0.70979627  0.91135091    -0.51900
C226        C  0.76852260  0.68697568  0.85348428     0.70100
O227        O  0.76406184  0.68196616  0.88828489    -0.46800
C228        C  0.77022615  0.71536865  0.93406561     0.74800
O229        O  0.76547415  0.68276773  0.96825433    -0.58600
O230        O  0.78145969  0.71823093  0.94030570    -0.48700
O231        O  0.78050435  0.69931775  0.99475171    -0.55000
C232        C  0.80018324  0.70074245  0.92054306     0.85000
O233        O  0.77759947  0.69810057  0.85572194    -0.56900
O234        O  0.76321984  0.70428583  0.92166566    -0.60200
In235      In  0.36602901  0.25722112  0.39995901     1.36900
C236        C  0.35415725  0.25172328  0.32672876     0.77500
O237        O  0.37044041  0.27717557  0.40029490    -0.61000
O238        O  0.38504156  0.27369122  0.38420494    -0.51900
C239        C  0.35697170  0.25602797  0.47583748     0.70100
O240        O  0.35036375  0.25363362  0.44326953    -0.46800
C241        C  0.36996697  0.23800119  0.40759883     0.74800
O242        O  0.34914651  0.25250090  0.35997320    -0.58600
O243        O  0.37891148  0.24919792  0.40523394    -0.48700
O244        O  0.36516862  0.25379454  0.33121119    -0.55000
C245        C  0.38160837  0.28168447  0.38854961     0.85000
O246        O  0.36829361  0.25929527  0.46933072    -0.56900
O247        O  0.35922988  0.23683126  0.40651892    -0.60200
In248      In  0.44736156  0.41381198  0.23940517     1.36900
C249        C  0.44198538  0.41859407  0.31523180     0.77500
O250        O  0.43169435  0.39397621  0.24464110    -0.61000
O251        O  0.45031069  0.39744303  0.24971350    -0.51900
C252        C  0.43907017  0.41539408  0.16419652     0.70100
O253        O  0.43615117  0.41904244  0.19687681    -0.46800
C254        C  0.47072828  0.43256737  0.23094476     0.74800
O255        O  0.43554216  0.41785102  0.28352248    -0.58600
O256        O  0.46806240  0.42125708  0.23208077    -0.48700
O257        O  0.45110868  0.41704152  0.30768816    -0.55000
C258        C  0.43874884  0.38951006  0.25129815     0.85000
O259        O  0.44585917  0.41059976  0.17044192    -0.56900
O260        O  0.46142291  0.43412856  0.23358584    -0.60200
In261      In  0.22278785  0.29711702  0.07798517     1.36900
C262        C  0.23011490  0.30912008  0.00566261     0.77500
O263        O  0.23770941  0.29187548  0.07795033    -0.61000
O264        O  0.21962389  0.27811006  0.05761863    -0.51900
C265        C  0.23160293  0.30749663  0.15241038     0.70100
O266        O  0.23537989  0.31342397  0.11857663    -0.46800
C267        C  0.19963397  0.29343858  0.08521493     0.74800
O268        O  0.23581205  0.31387806  0.03941969    -0.58600
O269        O  0.20186880  0.28452926  0.08827203    -0.48700
O270        O  0.22065629  0.29833309  0.00923540    -0.55000
C271        C  0.23095363  0.28114237  0.06237230     0.85000
O272        O  0.22342134  0.29604307  0.14818567    -0.56900
O273        O  0.20919591  0.30399069  0.07880181    -0.60200
In274      In  0.29757986  0.21832818  0.89758718     1.36900
C275        C  0.30945939  0.22673359  0.96990871     0.77500
O276        O  0.29154287  0.23263749  0.89753691    -0.61000
O277        O  0.27785268  0.21388739  0.91183178    -0.51900
C278        C  0.30593466  0.22572587  0.82074357     0.70100
O279        O  0.31231266  0.23123652  0.85278526    -0.46800
C280        C  0.29619349  0.19613274  0.89522343     0.74800
O281        O  0.31444574  0.23172962  0.93558292    -0.58600
O282        O  0.28651284  0.19715837  0.89381334    -0.48700
O283        O  0.29846558  0.21754954  0.96687648    -0.55000
C284        C  0.28046057  0.22515193  0.90874651     0.85000
O285        O  0.29517470  0.21654616  0.82818595    -0.56900
O286        O  0.30635606  0.20640323  0.89785855    -0.60200
In287      In  0.25821447  0.36664066  0.57881347     1.36900
C288        C  0.25381519  0.35535090  0.65254047     0.77500
O289        O  0.27842893  0.37232776  0.57674891    -0.61000
O290        O  0.27404161  0.38606827  0.59616665    -0.51900
C291        C  0.25632777  0.35571583  0.50550640     0.70100
O292        O  0.25462158  0.35012667  0.53989088    -0.46800
C293        C  0.23816501  0.36912440  0.56947983     0.74800
O294        O  0.25527076  0.35062501  0.61966912    -0.58600
O295        O  0.24916027  0.37844036  0.56702035    -0.48700
O296        O  0.25472554  0.36590662  0.64763215    -0.55000
C297        C  0.28243635  0.38323608  0.59063131     0.85000
O298        O  0.25940314  0.36712509  0.50866885    -0.56900
O299        O  0.23765923  0.35885345  0.57673141    -0.60200
In300      In  0.41502110  0.45144016  0.73936135     1.36900
C301        C  0.41833705  0.44490438  0.66357505     0.77500
O302        O  0.39539422  0.43573762  0.73320430    -0.61000
O303        O  0.39846329  0.45427688  0.73033993    -0.51900
C304        C  0.41625371  0.44339258  0.81543143     0.70100
O305        O  0.41942134  0.43983730  0.78307856    -0.46800
C306        C  0.43480664  0.47447764  0.74387182     0.74800
O307        O  0.41879791  0.43931682  0.69600185    -0.58600
O308        O  0.42371586  0.47243593  0.74626934    -0.48700
O309        O  0.41646111  0.45388642  0.67040553    -0.55000
C310        C  0.39071538  0.44264755  0.72757794     0.85000
O311        O  0.41223900  0.45081749  0.80850804    -0.56900
O312        O  0.43561117  0.46475310  0.73957642    -0.60200
In313      In  0.96950860  0.55238435  0.22821647     1.36900
C314        C  0.98074432  0.55614432  0.30216785     0.77500
O315        O  0.96662124  0.56865993  0.23772423    -0.61000
O316        O  0.95067499  0.55052745  0.24310874    -0.51900
C317        C  0.97878592  0.56139229  0.15299715     0.70100
O318        O  0.98554359  0.56449020  0.18543796    -0.46800
C319        C  0.96425694  0.52900973  0.21449830     0.74800
O320        O  0.98568012  0.56367283  0.27219377    -0.58600
O321        O  0.95579520  0.53170349  0.22138541    -0.48700
O322        O  0.97024152  0.54673010  0.29397325    -0.55000
C323        C  0.95510409  0.56223048  0.24564260     0.85000
O324        O  0.96727971  0.55391161  0.15941521    -0.56900
O325        O  0.97524784  0.53831199  0.21364686    -0.60200
In326      In  0.88837147  0.62786586  0.40077624     1.36900
C327        C  0.89407563  0.64010109  0.32876742     0.77500
O328        O  0.90441932  0.62478531  0.38762835    -0.61000
O329        O  0.88634332  0.60871211  0.39202637    -0.51900
C330        C  0.89619762  0.63664406  0.47792672     0.70100
O331        O  0.90081137  0.64320914  0.44567500    -0.46800
C332        C  0.86499403  0.62357886  0.40512546     0.74800
O333        O  0.89975402  0.64518515  0.36233975    -0.58600
O334        O  0.86729814  0.61472472  0.40149104    -0.48700
O335        O  0.88552675  0.62881137  0.33232617    -0.55000
C336        C  0.89784716  0.61303152  0.38480253     0.85000
O337        O  0.88784437  0.62544590  0.47057357    -0.56900
O338        O  0.87459883  0.63434590  0.40670296    -0.60200
In339      In  0.07849518  0.77688281  0.05094175     1.36900
C340        C  0.08124862  0.77025483  0.97488090     0.77500
O341        O  0.05837573  0.76182027  0.04780200    -0.61000
O342        O  0.06256510  0.78062656  0.04049660    -0.51900
C343        C  0.08064642  0.76786350  0.12402202     0.70100
O344        O  0.08337374  0.76478151  0.08980367    -0.46800
C345        C  0.09869013  0.79973257  0.05554970     0.74800
O346        O  0.08163048  0.76451982  0.00701769    -0.58600
O347        O  0.08798002  0.79764166  0.06647579    -0.48700
O348        O  0.07948263  0.77929624  0.98205159    -0.55000
C349        C  0.05428513  0.76913025  0.04007468     0.85000
O350        O  0.07652088  0.77532540  0.12061711    -0.56900
O351        O  0.09890592  0.79019756  0.04278412    -0.60200
In352      In  0.91993642  0.69783605  0.90068931     1.36900
C353        C  0.91440155  0.68592845  0.97372105     0.77500
O354        O  0.93898148  0.70043125  0.90804877    -0.61000
O355        O  0.93739941  0.71673501  0.91217703    -0.51900
C356        C  0.91922375  0.68928297  0.82353997     0.70100
O357        O  0.91615550  0.68239792  0.85547055    -0.46800
C358        C  0.90107619  0.70239908  0.89661329     0.74800
O359        O  0.91372757  0.68050270  0.93959622    -0.58600
O360        O  0.91236020  0.71115128  0.89918005    -0.48700
O361        O  0.91774964  0.69736528  0.97020879    -0.55000
C362        C  0.94446177  0.71208065  0.91444161     0.85000
O363        O  0.92277385  0.70063500  0.83115931    -0.56900
O364        O  0.89965661  0.69155686  0.89508943    -0.60200
In365      In  0.11312170  0.74232988  0.55250795     1.36900
C366        C  0.10673482  0.74549495  0.62846507     0.77500
O367        O  0.09689924  0.72272627  0.55329918    -0.61000
O368        O  0.11510094  0.72528350  0.56137442    -0.51900
C369        C  0.10492870  0.74548579  0.47927214     0.70100
O370        O  0.10238984  0.74878136  0.51341164    -0.46800
C371        C  0.13671904  0.76118575  0.54881186     0.74800
O372        O  0.10087643  0.74564949  0.59633619    -0.58600
O373        O  0.13391657  0.74990617  0.54364291    -0.48700
O374        O  0.11583690  0.74386245  0.62133965    -0.55000
C375        C  0.10342213  0.71772478  0.56076338     0.85000
O376        O  0.11163763  0.74048092  0.48270671    -0.56900
O377        O  0.12747287  0.76262861  0.55546523    -0.60200
In378      In  0.03835649  0.58762396  0.72921826     1.36900
C379        C  0.02652509  0.58208717  0.65614158     0.77500
O380        O  0.04209454  0.60698228  0.71770176    -0.61000
O381        O  0.05773462  0.60425824  0.71815795    -0.51900
C382        C  0.02976174  0.58692621  0.80590619     0.70100
O383        O  0.02277770  0.58324985  0.77405084    -0.46800
C384        C  0.04204323  0.56826508  0.73648209     0.74800
O385        O  0.02221861  0.58459734  0.68804746    -0.58600
O386        O  0.05104986  0.57934148  0.73145222    -0.48700
O387        O  0.03664918  0.58216577  0.66211961    -0.55000
C388        C  0.05371261  0.61175873  0.71253002     0.85000
O389        O  0.04124329  0.59130072  0.79829332    -0.56900
O390        O  0.03138369  0.56729380  0.73783504    -0.60200
In391      In  0.92531645  0.22055968  0.90056114     1.36900
C392        C  0.92017878  0.22721481  0.97365752     0.77500
O393        O  0.90463920  0.20767476  0.89738534    -0.61000
O394        O  0.91621927  0.19958650  0.89236200    -0.51900
C395        C  0.92523021  0.22955433  0.82511269     0.70100
O396        O  0.92537991  0.23512335  0.85831348    -0.46800
C397        C  0.94927971  0.22749244  0.91411136     0.74800
O398        O  0.91929548  0.23185173  0.93961894    -0.58600
O399        O  0.94066621  0.21614406  0.91477607    -0.48700
O400        O  0.92367780  0.21928077  0.96993738    -0.55000
C401        C  0.90521757  0.19783312  0.89283162     0.85000
O402        O  0.92552250  0.21958322  0.83060449    -0.56900
O403        O  0.94563162  0.23503857  0.90453250    -0.60200
In404      In  0.08107800  0.30022420  0.06860809     1.36900
C405        C  0.08520482  0.31004827  0.99240262     0.77500
O406        O  0.10173203  0.30827656  0.06680291    -0.61000
O407        O  0.09055192  0.28869937  0.07791778    -0.51900
C408        C  0.08276610  0.31028424  0.14386945     0.70100
O409        O  0.08242437  0.31558090  0.11056332    -0.46800
C410        C  0.05654011  0.28409954  0.05858191     0.74800
O411        O  0.08627655  0.31642048  0.02467853    -0.58600
O412        O  0.06455063  0.28058826  0.05742712    -0.48700
O413        O  0.08209109  0.29881006  0.99952073    -0.55000
C414        C  0.10146002  0.29806410  0.07334293     0.85000
O415        O  0.08197793  0.29977359  0.13852061    -0.56900
O416        O  0.06106701  0.29552725  0.06741556    -0.60200
In417      In  0.88874231  0.25285851  0.40309840     1.36900
C418        C  0.89645885  0.24838308  0.33077934     0.77500
O419        O  0.87540135  0.23236837  0.39774896    -0.61000
O420        O  0.86776734  0.24399900  0.41174966    -0.51900
C421        C  0.89580112  0.25040837  0.47950114     0.70100
O422        O  0.90217801  0.25146308  0.44746011    -0.46800
C423        C  0.89628219  0.27715105  0.39303428     0.74800
O424        O  0.90154480  0.24851199  0.36515947    -0.58600
O425        O  0.88529641  0.26856300  0.38443222    -0.48700
O426        O  0.88766527  0.25070970  0.33372229    -0.55000
C427        C  0.86571215  0.23301541  0.40499318     0.85000
O428        O  0.88602543  0.25094034  0.47243203    -0.56900
O429        O  0.90304505  0.27331124  0.40908476    -0.60200
In430      In  0.96404616  0.40719590  0.23068692     1.36900
C431        C  0.97518972  0.41185124  0.30514601     0.77500
O432        O  0.97326180  0.42791995  0.22491380    -0.61000
O433        O  0.95339408  0.41756612  0.22176072    -0.51900
C434        C  0.97241774  0.40613815  0.15515608     0.70100
O435        O  0.97880033  0.40790241  0.18792502    -0.46800
C436        C  0.94700260  0.38335684  0.24505627     0.74800
O437        O  0.98052066  0.41152226  0.27199707    -0.58600
O438        O  0.94405264  0.39178035  0.24272161    -0.48700
O439        O  0.96422995  0.40991878  0.29993425    -0.55000
C440        C  0.96326159  0.42821441  0.22082972     0.85000
O441        O  0.96164679  0.40460806  0.16132245    -0.56900
O442        O  0.95839134  0.38715296  0.23815533    -0.60200
In443      In  0.11745674  0.37055676  0.56837500     1.36900
C444        C  0.11149744  0.36044897  0.64404992     0.77500
O445        O  0.13109362  0.36386685  0.57407762    -0.61000
O446        O  0.13831772  0.38311984  0.55961622    -0.51900
C447        C  0.11047117  0.36027280  0.49263271     0.70100
O448        O  0.10468572  0.35463941  0.52527486    -0.46800
C449        C  0.10832745  0.38595429  0.57778151     0.74800
O450        O  0.10581691  0.35438554  0.61160886    -0.58600
O451        O  0.11996311  0.38995660  0.57667576    -0.48700
O452        O  0.12017676  0.37152257  0.63735879    -0.55000
C453        C  0.14061850  0.37436208  0.56627190     0.85000
O454        O  0.11945029  0.37124124  0.49879593    -0.56900
O455        O  0.10159909  0.37435569  0.57123123    -0.60200
In456      In  0.03261273  0.44160504  0.73528890     1.36900
C457        C  0.02030998  0.43427385  0.66290963     0.77500
O458        O  0.02498170  0.45455373  0.73563705    -0.61000
O459        O  0.04452595  0.46271240  0.74540906    -0.51900
C460        C  0.02394268  0.43286735  0.81135241     0.70100
O461        O  0.01741778  0.42837598  0.77873485    -0.46800
C462        C  0.04888278  0.43381105  0.72011835     0.74800
O463        O  0.01520900  0.42940816  0.69726040    -0.58600
O464        O  0.05174169  0.44510917  0.71538652    -0.48700
O465        O  0.03164905  0.44273800  0.66588119    -0.55000
C466        C  0.03530255  0.46443914  0.74179769     0.85000
O467        O  0.03495295  0.44174546  0.80485563    -0.56900
O468        O  0.03805700  0.42684552  0.73447354    -0.60200
C469        C  0.10284785  0.39386983  0.58845699    -0.03300
C470        C  0.11041062  0.40686401  0.59457810    -0.05900
C471        C  0.10516652  0.41394796  0.60902726    -0.21000
C472        C  0.09233038  0.40815048  0.61834785     0.24700
C473        C  0.08471796  0.39522026  0.61060326    -0.18600
C474        C  0.08992121  0.38819040  0.59587813    -0.08500
C475        C  0.08707308  0.41578096  0.63546880    -0.18800
C476        C  0.07697370  0.41085663  0.66070426    -0.23600
C477        C  0.07084247  0.41769755  0.67783701     0.26800
C478        C  0.06080614  0.41122524  0.70551126    -0.20400
C479        C  0.05401822  0.41667362  0.72033579    -0.10000
C480        C  0.05711950  0.42881144  0.70811552    -0.10600
C481        C  0.06740330  0.43552846  0.68154961    -0.03500
C482        C  0.07417539  0.43002281  0.66634373    -0.18600
H483        H  0.12039843  0.41149843  0.58900219     0.10500
H484        H  0.11120994  0.42392312  0.61405090     0.10500
H485        H  0.07471434  0.39047530  0.61573816     0.10200
H486        H  0.08382666  0.37820348  0.59125780     0.11300
H487        H  0.09196679  0.42568977  0.62816539     0.11400
H488        H  0.07287713  0.40110651  0.66983219     0.13300
H489        H  0.05799097  0.40175209  0.71505159     0.09800
H490        H  0.04613887  0.41125174  0.74075147     0.11900
H491        H  0.06992295  0.44486318  0.67130425     0.08500
H492        H  0.08174150  0.43537405  0.64490306     0.11300
C493        C  0.98123102  0.41426738  0.34671528    -0.03300
C494        C  0.99316959  0.41566559  0.35136102    -0.05900
C495        C  0.99889032  0.41802324  0.39062919    -0.21000
C496        C  0.99280750  0.41898345  0.42618902     0.24700
C497        C  0.98084006  0.41761300  0.42147500    -0.18600
C498        C  0.97511180  0.41523070  0.38217470    -0.08500
C499        C  0.99956221  0.42205688  0.46692731    -0.18800
C500        C  0.99397237  0.42026125  0.50439659    -0.23600
C501        C  0.00100230  0.42382049  0.54464982     0.26800
C502        C  0.99466039  0.41800704  0.58161295    -0.20400
C503        C  0.00091449  0.42129095  0.62009918    -0.10000
C504        C  0.01363144  0.43055183  0.62241172    -0.10600
C505        C  0.01994669  0.43647739  0.58557838    -0.03500
C506        C  0.01371506  0.43320415  0.54717722    -0.18600
H507        H  0.99811231  0.41497029  0.32460383     0.10500
H508        H  0.00814079  0.41913089  0.39321430     0.10500
H509        H  0.97595440  0.41864443  0.44769580     0.10200
H510        H  0.96592994  0.41427686  0.37947513     0.11300
H511        H  0.00957317  0.42562518  0.46572895     0.11400
H512        H  0.98384217  0.41563256  0.50608537     0.13300
H513        H  0.98483802  0.41086394  0.58068694     0.09800
H514        H  0.99578916  0.41663015  0.64803638     0.11900
H515        H  0.02971655  0.44376040  0.58645627     0.08500
H516        H  0.01885509  0.43826337  0.51981813     0.11300
C517        C  0.01904781  0.42826020  0.85374301    -0.03300
C518        C  0.02653957  0.43400565  0.88901749    -0.05900
C519        C  0.02173483  0.43011235  0.92914356    -0.21000
C520        C  0.00931707  0.42042664  0.93506481     0.24700
C521        C  0.00195871  0.41434854  0.89960550    -0.18600
C522        C  0.00676513  0.41828158  0.85944340    -0.08500
C523        C  0.00446447  0.41717024  0.97858070    -0.18800
C524        C  0.99216703  0.41083411  0.98827519    -0.23600
C525        C  0.98722785  0.40883067  0.03169962     0.26800
C526        C  0.97478861  0.40593917  0.03753209    -0.20400
C527        C  0.96987970  0.40472214  0.07758741    -0.10000
C528        C  0.97728107  0.40628786  0.11288062    -0.10600
C529        C  0.98955147  0.40863006  0.10724502    -0.03500
C530        C  0.99448392  0.40986128  0.06709343    -0.18600
H531        H  0.03607347  0.44166351  0.88563156     0.10500
H532        H  0.02768433  0.43488667  0.95571931     0.10500
H533        H  0.99250821  0.40655087  0.90243983     0.10200
H534        H  0.00082207  0.41356497  0.83281013     0.11300
H535        H  0.01134809  0.42103085  0.00347968     0.11400
H536        H  0.98527419  0.40780279  0.96344244     0.13300
H537        H  0.96891947  0.40494023  0.01095443     0.09800
H538        H  0.96036184  0.40283031  0.08091479     0.11900
H539        H  0.99542474  0.40973964  0.13391293     0.08500
H540        H  0.00395510  0.41164148  0.06413851     0.11300
C541        C  0.90120390  0.29050255  0.38264212    -0.03300
C542        C  0.91314386  0.29963841  0.39662902    -0.05900
C543        C  0.91874023  0.31190327  0.38160496    -0.21000
C544        C  0.91257527  0.31534681  0.35216877     0.24700
C545        C  0.90036445  0.30631636  0.33951424    -0.18600
C546        C  0.89472491  0.29403281  0.35482785    -0.08500
C547        C  0.91969364  0.32808125  0.33338705    -0.18800
C548        C  0.91476853  0.33339135  0.30878386    -0.23600
C549        C  0.92273811  0.34588777  0.28936104     0.26800
C550        C  0.91798639  0.35399216  0.28317622    -0.20400
C551        C  0.92568994  0.36611438  0.26742724    -0.10000
C552        C  0.93820469  0.37021033  0.25697515    -0.10600
C553        C  0.94268844  0.36182023  0.26093057    -0.03500
C554        C  0.93506204  0.34981183  0.27685082    -0.18600
H555        H  0.91836229  0.29719557  0.41808380     0.10500
H556        H  0.92812676  0.31863357  0.39202608     0.10500
H557        H  0.89530798  0.30846127  0.31654212     0.10200
H558        H  0.88554619  0.28714218  0.34326796     0.11300
H559        H  0.92965169  0.33341187  0.34041819     0.11400
H560        H  0.90472942  0.32885860  0.30401912     0.13300
H561        H  0.90844567  0.35109356  0.29189174     0.09800
H562        H  0.92197360  0.37236977  0.26447841     0.11900
H563        H  0.95224451  0.36464151  0.25267626     0.08500
H564        H  0.93887435  0.34363610  0.27952042     0.11300
C565        C  0.08732233  0.31514859  0.94956832    -0.03300
C566        C  0.08600230  0.30742732  0.91543842    -0.05900
C567        C  0.08773882  0.31203543  0.87476091    -0.21000
C568        C  0.09095926  0.32449423  0.86718738     0.24700
C569        C  0.09219934  0.33222689  0.90138373    -0.18600
C570        C  0.09044438  0.32759619  0.94216872    -0.08500
C571        C  0.09276116  0.32894630  0.82325328    -0.18800
C572        C  0.09988514  0.34108470  0.81249235    -0.23600
C573        C  0.10252289  0.34557859  0.76862316     0.26800
C574        C  0.11316545  0.35727361  0.76079394    -0.20400
C575        C  0.11607270  0.36201003  0.72032286    -0.10000
C576        C  0.10836465  0.35517646  0.68660826    -0.10600
C577        C  0.09765309  0.34349143  0.69421589    -0.03500
C578        C  0.09470897  0.33874323  0.73487036    -0.18600
H579        H  0.08357395  0.29777535  0.92014251     0.10500
H580        H  0.08665613  0.30585563  0.84908796     0.10500
H581        H  0.09430059  0.34177159  0.89687673     0.10200
H582        H  0.09141652  0.33371820  0.96787617     0.11300
H583        H  0.08878795  0.32184322  0.79902825     0.11400
H584        H  0.10475070  0.34803381  0.83669981     0.13300
H585        H  0.11931535  0.36276333  0.78612624     0.09800
H586        H  0.12439018  0.37105243  0.71543710     0.11900
H587        H  0.09147741  0.33809836  0.66882287     0.08500
H588        H  0.08622360  0.32986089  0.73966191     0.11300
C589        C  0.10735478  0.35445368  0.45067968    -0.03300
C590        C  0.11668571  0.35861014  0.41999164    -0.05900
C591        C  0.11411177  0.35274465  0.38096395    -0.21000
C592        C  0.10205380  0.34290347  0.37124557     0.24700
C593        C  0.09261574  0.33887630  0.40159747    -0.18600
C594        C  0.09529715  0.34449975  0.44121154    -0.08500
C595        C  0.09979808  0.33652662  0.33020494    -0.18800
C596        C  0.08944122  0.33309857  0.30712306    -0.23600
C597        C  0.08763599  0.32711864  0.26546968     0.26800
C598        C  0.08284659  0.33087073  0.23225880    -0.20400
C599        C  0.08133757  0.32549385  0.19256808    -0.10000
C600        C  0.08419607  0.31595913  0.18576412    -0.10600
C601        C  0.08863620  0.31195798  0.21936217    -0.03500
C602        C  0.09046501  0.31756578  0.25868989    -0.18600
H603        H  0.12608894  0.36618443  0.42659266     0.10500
H604        H  0.12155090  0.35592727  0.35819721     0.10500
H605        H  0.08329058  0.33114892  0.39510239     0.10200
H606        H  0.08796093  0.34108999  0.46440552     0.11300
H607        H  0.10727465  0.33535126  0.31735797     0.11400
H608        H  0.08254943  0.33547660  0.31775033     0.13300
H609        H  0.08052002  0.33815598  0.23685185     0.09800
H610        H  0.07784433  0.32871399  0.16729009     0.11900
H611        H  0.09089823  0.30461887  0.21504598     0.08500
H612        H  0.09395466  0.31433503  0.28395202     0.11300
C613        C  0.96246573  0.23183369  0.92563685    -0.03300
C614        C  0.96619213  0.22344227  0.94001969    -0.05900
C615        C  0.97838210  0.22793993  0.95537885    -0.21000
C616        C  0.98697247  0.24088665  0.95720758     0.24700
C617        C  0.98340065  0.24918452  0.94066211    -0.18600
C618        C  0.97129658  0.24471003  0.92522357    -0.08500
C619        C  0.99954831  0.24559461  0.97668718    -0.18800
C620        C  0.00544510  0.25661617  0.99748425    -0.23600
C621        C  0.01818763  0.26242456  0.01679590     0.26800
C622        C  0.02248669  0.27369992  0.03888882    -0.20400
C623        C  0.03474153  0.28036223  0.05418587    -0.10000
C624        C  0.04307636  0.27591491  0.04802666    -0.10600
C625        C  0.03867664  0.26432686  0.02776835    -0.03500
C626        C  0.02636172  0.25764646  0.01213120    -0.18600
H627        H  0.95959497  0.21345621  0.94050893     0.10500
H628        H  0.98096349  0.22133295  0.96724300     0.10500
H629        H  0.98992007  0.25917786  0.93985462     0.10200
H630        H  0.96876242  0.25140159  0.91385987     0.11300
H631        H  0.00362006  0.23961258  0.97528859     0.11400
H632        H  0.00058649  0.26185180  0.00079606     0.13300
H633        H  0.01644593  0.27761743  0.04326411     0.09800
H634        H  0.03781866  0.28924166  0.06972615     0.11900
H635        H  0.04491790  0.26070180  0.02238256     0.08500
H636        H  0.02351577  0.24902819  0.99534147     0.11300
C637        C  0.90022648  0.24557122  0.29026499    -0.03300
C638        C  0.91043227  0.24358352  0.28730971    -0.05900
C639        C  0.91376028  0.24078930  0.24874572    -0.21000
C640        C  0.90701870  0.24000205  0.21235995     0.24700
C641        C  0.89666119  0.24178406  0.21559423    -0.18600
C642        C  0.89337077  0.24460620  0.25403982    -0.08500
C643        C  0.91080926  0.23691673  0.17203432    -0.18800
C644        C  0.90782877  0.23962063  0.13439654    -0.23600
C645        C  0.91140968  0.23649738  0.09365708     0.26800
C646        C  0.90983068  0.24184511  0.05707403    -0.20400
C647        C  0.91276620  0.23896429  0.01798877    -0.10000
C648        C  0.91729696  0.23060995  0.01467996    -0.10600
C649        C  0.91887498  0.22524873  0.05110717    -0.03500
C650        C  0.91592679  0.22809362  0.09009937    -0.18600
H651        H  0.91583106  0.24418218  0.31476906     0.10500
H652        H  0.92168196  0.23930953  0.24728778     0.10500
H653        H  0.89089908  0.24079156  0.18880220     0.10200
H654        H  0.88533895  0.24590727  0.25545854     0.11300
H655        H  0.91669028  0.23274525  0.17396482     0.11400
H656        H  0.90281084  0.24472442  0.13299856     0.13300
H657        H  0.90627794  0.24826514  0.05871475     0.09800
H658        H  0.91140549  0.24319501  0.99038877     0.11900
H659        H  0.92228637  0.21871467  0.04946992     0.08500
H660        H  0.91700325  0.22345070  0.11696750     0.11300
C661        C  0.89926207  0.24835992  0.52173764    -0.03300
C662        C  0.89003584  0.24271084  0.55258698    -0.05900
C663        C  0.89302857  0.23991327  0.59169943    -0.21000
C664        C  0.90536525  0.24306472  0.60120794     0.24700
C665        C  0.91469404  0.24903831  0.57078166    -0.18600
C666        C  0.91162962  0.25153052  0.53119594    -0.08500
C667        C  0.90804757  0.23919442  0.64189553    -0.18800
C668        C  0.91861400  0.24630967  0.66381450    -0.23600
C669        C  0.92084075  0.24212932  0.70461872     0.26800
C670        C  0.92508426  0.25041156  0.73864829    -0.20400
C671        C  0.92664748  0.24638032  0.77784713    -0.10000
C672        C  0.92435599  0.23410602  0.78330210    -0.10600
C673        C  0.92061680  0.22599147  0.74875780    -0.03500
C674        C  0.91875056  0.22992413  0.70986064    -0.18600
H675        H  0.88041562  0.24009809  0.54602528     0.10500
H676        H  0.88568108  0.23523131  0.61458496     0.10500
H677        H  0.92424458  0.25136875  0.57708393     0.10200
H678        H  0.91890365  0.25586852  0.50790546     0.11300
H679        H  0.90080019  0.23044103  0.65525118     0.11400
H680        H  0.92533161  0.25566551  0.65300924     0.13300
H681        H  0.92682546  0.25988451  0.73515330     0.09800
H682        H  0.92957432  0.25283158  0.80393990     0.11900
H683        H  0.91880328  0.21648983  0.75207073     0.08500
H684        H  0.91568638  0.22344291  0.68382469     0.11300
C685        C  0.04359433  0.55717407  0.74034152    -0.03300
C686        C  0.05505115  0.55783187  0.73167942    -0.05900
C687        C  0.05611274  0.54704860  0.73424242    -0.21000
C688        C  0.04575056  0.53543021  0.74535601     0.24700
C689        C  0.03442211  0.53494616  0.75532267    -0.18600
C690        C  0.03334551  0.54564352  0.75244437    -0.08500
C691        C  0.04701296  0.52402350  0.74694400    -0.18800
C692        C  0.03711322  0.51237181  0.74147324    -0.23600
C693        C  0.03736795  0.50041581  0.74309460     0.26800
C694        C  0.02592731  0.48921099  0.73776099    -0.20400
C695        C  0.02535133  0.47764104  0.73809333    -0.10000
C696        C  0.03622600  0.47688731  0.74366286    -0.10600
C697        C  0.04772199  0.48802989  0.74964693    -0.03500
C698        C  0.04831025  0.49971192  0.74942849    -0.18600
H699        H  0.06311895  0.56662137  0.72241071     0.10500
H700        H  0.06499109  0.54773889  0.72690989     0.10500
H701        H  0.02636077  0.52636901  0.76589493     0.10200
H702        H  0.02444743  0.54488436  0.75996602     0.11300
H703        H  0.05632039  0.52540270  0.75143949     0.11400
H704        H  0.02806781  0.51141054  0.73455097     0.13300
H705        H  0.01732593  0.48938207  0.73302332     0.09800
H706        H  0.01633521  0.46924863  0.73347328     0.11900
H707        H  0.05625397  0.48771913  0.75407323     0.08500
H708        H  0.05733337  0.50805539  0.75384861     0.11300
C709        C  0.09769235  0.70425054  0.57057961    -0.03300
C710        C  0.08476212  0.69619977  0.56512735    -0.05900
C711        C  0.07897366  0.68386754  0.57957833    -0.21000
C712        C  0.08592406  0.67932807  0.60027872     0.24700
C713        C  0.09899328  0.68724024  0.60404612    -0.18600
C714        C  0.10480071  0.69957763  0.58927603    -0.08500
C715        C  0.07901224  0.66645441  0.61808381    -0.18800
C716        C  0.08374949  0.66182488  0.64629221    -0.23600
C717        C  0.07606324  0.64920915  0.66518314     0.26800
C718        C  0.08180088  0.64236250  0.67748944    -0.20400
C719        C  0.07464532  0.63025657  0.69390309    -0.10000
C720        C  0.06165752  0.62490799  0.69898462    -0.10600
C721        C  0.05603648  0.63200182  0.68847134    -0.03500
C722        C  0.06314063  0.64400896  0.67183037    -0.18600
H723        H  0.07904918  0.69953931  0.55070059     0.10500
H724        H  0.06892951  0.67797338  0.57576630     0.10500
H725        H  0.10480238  0.68408392  0.61866412     0.10200
H726        H  0.11479397  0.70559739  0.59383589     0.11300
H727        H  0.06932339  0.66063055  0.60829208     0.11400
H728        H  0.09348158  0.66721618  0.65579382     0.13300
H729        H  0.09178058  0.64625921  0.67334363     0.09800
H730        H  0.07922223  0.62501263  0.70193048     0.11900
H731        H  0.04605709  0.62817221  0.69234338     0.08500
H732        H  0.05847449  0.64919930  0.66438731     0.11300
C733        C  0.95796480  0.71934045  0.92509448    -0.03300
C734        C  0.96469845  0.71302280  0.92913825    -0.05900
C735        C  0.97720517  0.71939192  0.94177233    -0.21000
C736        C  0.98337727  0.73225794  0.95091922     0.24700
C737        C  0.97673936  0.73872244  0.94594784    -0.18600
C738        C  0.96412390  0.73228923  0.93320984    -0.08500
C739        C  0.99659458  0.73821373  0.96598869    -0.18800
C740        C  0.00328245  0.74980485  0.98260591    -0.23600
C741        C  0.01619086  0.75472972  0.99946423     0.26800
C742        C  0.02477156  0.76767613  0.99851516    -0.20400
C743        C  0.03707766  0.77248338  0.01303885    -0.10000
C744        C  0.04098990  0.76442086  0.02915516    -0.10600
C745        C  0.03226640  0.75153779  0.03164702    -0.03500
C746        C  0.02000527  0.74674648  0.01717948    -0.18600
H747        H  0.96023352  0.70304283  0.92319618     0.10500
H748        H  0.98202565  0.71414261  0.94512667     0.10500
H749        H  0.98114106  0.74866980  0.95190603     0.10200
H750        H  0.95915512  0.73739650  0.93022488     0.11300
H751        H  0.00097670  0.73250086  0.96398163     0.11400
H752        H  0.99943293  0.75598279  0.98352810     0.13300
H753        H  0.02203429  0.77404688  0.98553964     0.09800
H754        H  0.04361364  0.78245285  0.01062962     0.11900
H755        H  0.03497454  0.74510248  0.04423976     0.08500
H756        H  0.01354188  0.73678642  0.02010876     0.11300
C757        C  0.08282653  0.76683692  0.93217957    -0.03300
C758        C  0.08222579  0.77364481  0.89807967    -0.05900
C759        C  0.08389332  0.77064302  0.85757064    -0.21000
C760        C  0.08630512  0.76085802  0.85027276     0.24700
C761        C  0.08670035  0.75387955  0.88438308    -0.18600
C762        C  0.08500267  0.75687755  0.92499160    -0.08500
C763        C  0.08816090  0.75814538  0.80666227    -0.18800
C764        C  0.09487019  0.75268595  0.79658435    -0.23600
C765        C  0.09744034  0.75065921  0.75296929     0.26800
C766        C  0.10777464  0.74914266  0.74544924    -0.20400
C767        C  0.11072217  0.74741314  0.70497749    -0.10000
C768        C  0.10335512  0.74711237  0.67110407    -0.10600
C769        C  0.09283560  0.74834344  0.67849378    -0.03500
C770        C  0.08985529  0.75004991  0.71909644    -0.18600
H771        H  0.08050851  0.78134336  0.90270003     0.10500
H772        H  0.08345084  0.77609383  0.83185243     0.10500
H773        H  0.08813829  0.74601049  0.87990104     0.10200
H774        H  0.08539278  0.75141064  0.95073849     0.11300
H775        H  0.08460967  0.76159346  0.78218415     0.11400
H776        H  0.09940617  0.75034171  0.82111299     0.13300
H777        H  0.11369061  0.74944810  0.77095223     0.09800
H778        H  0.11884180  0.74639574  0.70019715     0.11900
H779        H  0.08690529  0.74796323  0.65292702     0.08500
H780        H  0.08155209  0.75072729  0.72369156     0.11300
C781        C  0.10044337  0.74740432  0.43865292    -0.03300
C782        C  0.09328955  0.75332635  0.43670475    -0.05900
C783        C  0.08923116  0.75536450  0.39830543    -0.21000
C784        C  0.09222988  0.75157151  0.36085714     0.24700
C785        C  0.09925570  0.74543723  0.36300143    -0.18600
C786        C  0.10332783  0.74342288  0.40146959    -0.08500
C787        C  0.08792184  0.75438701  0.32081539    -0.18800
C788        C  0.09124501  0.75254762  0.28255161    -0.23600
C789        C  0.08752212  0.75603835  0.24270938     0.26800
C790        C  0.08927159  0.75121295  0.20526181    -0.20400
C791        C  0.08676744  0.75482122  0.16677285    -0.10000
C792        C  0.08245861  0.76337906  0.16479424    -0.10600
C793        C  0.08047665  0.76807090  0.20212483    -0.03500
C794        C  0.08302399  0.76450059  0.24068773    -0.18600
H795        H  0.09088784  0.75647023  0.46488979     0.10500
H796        H  0.08381298  0.76005419  0.39787542     0.10500
H797        H  0.10168675  0.74211304  0.33545387     0.10200
H798        H  0.10877016  0.73876124  0.40208943     0.11300
H799        H  0.08183718  0.75831206  0.32343940     0.11400
H800        H  0.09707043  0.74835526  0.27951842     0.13300
H801        H  0.09276535  0.74473163  0.20573100     0.09800
H802        H  0.08839896  0.75105957  0.13851798     0.11900
H803        H  0.07724991  0.77476460  0.20150640     0.08500
H804        H  0.08181395  0.76873302  0.26842490     0.11300
C805        C  0.89997579  0.64176675  0.52073779    -0.03300
C806        C  0.89355936  0.63446962  0.55549316    -0.05900
C807        C  0.89651110  0.63959001  0.59570193    -0.21000
C808        C  0.90590312  0.65213432  0.60224452     0.24700
C809        C  0.91264473  0.65931055  0.56747775    -0.18600
C810        C  0.90965792  0.65418414  0.52720331    -0.08500
C811        C  0.90826632  0.65720908  0.64573221    -0.18800
C812        C  0.91453599  0.66954328  0.65561054    -0.23600
C813        C  0.91609078  0.67445887  0.69918982     0.26800
C814        C  0.91924398  0.68699905  0.70536443    -0.20400
C815        C  0.92044768  0.69190091  0.74566245    -0.10000
C816        C  0.91853595  0.68436174  0.78079393    -0.10600
C817        C  0.91571497  0.67193639  0.77475362    -0.03500
C818        C  0.91458762  0.66705551  0.73452588    -0.18600
H819        H  0.88607357  0.62486110  0.55155433     0.10500
H820        H  0.89124275  0.63377025  0.62178981     0.10500
H821        H  0.92022934  0.66886062  0.57098352     0.10200
H822        H  0.91485499  0.65999625  0.50102281     0.11300
H823        H  0.90391097  0.65037446  0.67040987     0.11400
H824        H  0.91807417  0.67643567  0.63084119     0.13300
H825        H  0.92059776  0.69298720  0.67887729     0.09800
H826        H  0.92269056  0.70153564  0.74931168     0.11900
H827        H  0.91436213  0.66595019  0.80123406     0.08500
H828        H  0.91263241  0.65751664  0.73154169     0.11300
C829        C  0.89715331  0.64673368  0.28843488    -0.03300
C830        C  0.90774398  0.65871494  0.28447421    -0.05900
C831        C  0.91071519  0.66485481  0.24600428    -0.21000
C832        C  0.90321234  0.65913124  0.21071872     0.24700
C833        C  0.89246178  0.64721148  0.21493892    -0.18600
C834        C  0.88951108  0.64106659  0.25337594    -0.08500
C835        C  0.90663816  0.66607129  0.17057457    -0.18800
C836        C  0.90312179  0.66041272  0.13301053    -0.23600
C837        C  0.90637282  0.66732024  0.09273242     0.26800
C838        C  0.90569306  0.66083460  0.05590822    -0.20400
C839        C  0.90831096  0.66685893  0.01723047    -0.10000
C840        C  0.91160379  0.67950370  0.01453343    -0.10600
C841        C  0.91224199  0.68600539  0.05127045    -0.03500
C842        C  0.90960641  0.67998601  0.08993191    -0.18600
H843        H  0.91377637  0.66330830  0.31103908     0.10500
H844        H  0.91896905  0.67407926  0.24371305     0.10500
H845        H  0.88618520  0.64267341  0.18892122     0.10200
H846        H  0.88119039  0.63189550  0.25571179     0.11300
H847        H  0.91274772  0.67615612  0.17228952     0.11400
H848        H  0.89801133  0.65024828  0.13134633     0.13300
H849        H  0.90313554  0.65105889  0.05706395     0.09800
H850        H  0.90774219  0.66161320  0.98942649     0.11900
H851        H  0.91468157  0.69574476  0.05010709     0.08500
H852        H  0.90985938  0.68524799  0.11722867     0.11300
C853        C  0.96169993  0.51603290  0.20916597    -0.03300
C854        C  0.95055952  0.50580803  0.22399993    -0.05900
C855        C  0.94872813  0.49365176  0.22222478    -0.21000
C856        C  0.95795890  0.49146631  0.20545255     0.24700
C857        C  0.96886330  0.50169459  0.18880643    -0.18600
C858        C  0.97075786  0.51383784  0.19113357    -0.08500
C859        C  0.95595180  0.47848318  0.20615853    -0.18800
C860        C  0.96548601  0.47611741  0.20483107    -0.23600
C861        C  0.96422017  0.46347261  0.20802676     0.26800
C862        C  0.97523847  0.46296968  0.21336494    -0.20400
C863        C  0.97483238  0.45152275  0.21718430    -0.10000
C864        C  0.96336970  0.44019387  0.21573587    -0.10600
C865        C  0.95228563  0.44056419  0.20973809    -0.03500
C866        C  0.95268615  0.45209861  0.20579821    -0.18600
H867        H  0.94343637  0.50725714  0.23813483     0.10500
H868        H  0.94019370  0.48596651  0.23489569     0.10500
H869        H  0.97598708  0.50043451  0.17388462     0.10200
H870        H  0.97936094  0.52154526  0.17892067     0.11300
H871        H  0.94644912  0.47084137  0.21055975     0.11400
H872        H  0.97499305  0.48397329  0.20351931     0.13300
H873        H  0.98426359  0.47151587  0.21494941     0.09800
H874        H  0.98355160  0.45156968  0.22160420     0.11900
H875        H  0.94332608  0.43195426  0.20814201     0.08500
H876        H  0.94397631  0.45198552  0.20085958     0.11300
C877        C  0.90323923  0.60515655  0.37249051    -0.03300
C878        C  0.89561870  0.59212812  0.36746659    -0.05900
C879        C  0.90070922  0.58491473  0.35304370    -0.21000
C880        C  0.91347422  0.59058357  0.34291436     0.24700
C881        C  0.92115887  0.60358976  0.34926289    -0.18600
C882        C  0.91608281  0.61077391  0.36367868    -0.08500
C883        C  0.91856129  0.58269329  0.32680200    -0.18800
C884        C  0.92878104  0.58734285  0.30223924    -0.23600
C885        C  0.93480359  0.58022928  0.28685537     0.26800
C886        C  0.94674436  0.58712982  0.26900735    -0.20400
C887        C  0.95313793  0.58119990  0.25498395    -0.10000
C888        C  0.94772196  0.56814660  0.25800736    -0.10600
C889        C  0.93564400  0.56110361  0.27489623    -0.03500
C890        C  0.92922961  0.56707639  0.28930414    -0.18600
H891        H  0.88569133  0.58753967  0.37409299     0.10500
H892        H  0.89460834  0.57490452  0.34902738     0.10500
H893        H  0.93112998  0.60827865  0.34358447     0.10200
H894        H  0.92222458  0.62078202  0.36757633     0.11300
H895        H  0.91361067  0.57285588  0.33514786     0.11400
H896        H  0.93326350  0.59712247  0.29315411     0.13300
H897        H  0.95127744  0.59723740  0.26647512     0.09800
H898        H  0.96242789  0.58689367  0.24210361     0.11900
H899        H  0.93126028  0.55101837  0.27766321     0.08500
H900        H  0.91997416  0.56133414  0.30214248     0.11300
C901        C  0.98658457  0.55815842  0.34374149    -0.03300
C902        C  0.98331638  0.54792970  0.37028160    -0.05900
C903        C  0.98851336  0.54981930  0.41024832    -0.21000
C904        C  0.99674850  0.56198062  0.42485626     0.24700
C905        C  0.00010642  0.57221955  0.39815390    -0.18600
C906        C  0.99513331  0.57030161  0.35779350    -0.08500
C907        C  0.00199475  0.56367485  0.46753385    -0.18800
C908        C  0.00454272  0.57362839  0.49159373    -0.23600
C909        C  0.00985985  0.57530845  0.53421151     0.26800
C910        C  0.00689376  0.58161954  0.56447605    -0.20400
C911        C  0.01201451  0.58353761  0.60466062    -0.10000
C912        C  0.02044242  0.57945166  0.61481376    -0.10600
C913        C  0.02352085  0.57327823  0.58440938    -0.03500
C914        C  0.01824210  0.57116350  0.54457802    -0.18600
H915        H  0.97678830  0.53846406  0.36001393     0.10500
H916        H  0.98591715  0.54178691  0.43010786     0.10500
H917        H  0.00669176  0.58168281  0.40821050     0.10200
H918        H  0.99778027  0.57832311  0.33784810     0.11300
H919        H  0.00312823  0.55615342  0.48028684     0.11400
H920        H  0.00215242  0.58047914  0.48049249     0.13300
H921        H  0.00056443  0.58501760  0.55703360     0.09800
H922        H  0.00962093  0.58846003  0.62745762     0.11900
H923        H  0.03007100  0.57012115  0.59140198     0.08500
H924        H  0.02099723  0.56658016  0.52165667     0.11300
C925        C  0.02482031  0.58586469  0.84865233    -0.03300
C926        C  0.03286249  0.58963083  0.88337481    -0.05900
C927        C  0.02804681  0.58795105  0.92382687    -0.21000
C928        C  0.01509546  0.58249463  0.93063105     0.24700
C929        C  0.00707194  0.57886031  0.89560466    -0.18600
C930        C  0.01190190  0.58055846  0.85520273    -0.08500
C931        C  0.01045149  0.58029820  0.97459237    -0.18800
C932        C  0.99848231  0.57628317  0.98571731    -0.23600
C933        C  0.99376921  0.57310990  0.02932188     0.26800
C934        C  0.98093850  0.56473964  0.03545068    -0.20400
C935        C  0.97606874  0.56111841  0.07559910    -0.10000
C936        C  0.98390940  0.56585479  0.11072276    -0.10600
C937        C  0.99669295  0.57452740  0.10484558    -0.03500
C938        C  0.00158397  0.57816002  0.06458065    -0.18600
H939        H  0.04286744  0.59371066  0.87931580     0.10500
H940        H  0.03448136  0.59080792  0.94998832     0.10500
H941        H  0.99703948  0.57443176  0.89873759     0.10200
H942        H  0.00546583  0.57749682  0.82902236     0.11300
H943        H  0.01722622  0.58171638  0.99868474     0.11400
H944        H  0.99154480  0.57460662  0.96204397     0.13300
H945        H  0.97467383  0.56077819  0.00897196     0.09800
H946        H  0.96617417  0.55444296  0.07909566     0.11900
H947        H  0.00293500  0.57843725  0.13138203     0.08500
H948        H  0.01143606  0.58495849  0.06136446     0.11300
C949        C  0.15334378  0.37603099  0.56504033    -0.03300
C950        C  0.16363543  0.38710296  0.54995121    -0.05900
C951        C  0.17555236  0.38832437  0.54827187    -0.21000
C952        C  0.17737473  0.37849680  0.56144942     0.24700
C953        C  0.16707740  0.36755490  0.57747948    -0.18600
C954        C  0.15521940  0.36631521  0.57889926    -0.08500
C955        C  0.19012485  0.38000608  0.55971273    -0.18800
C956        C  0.19186038  0.37009165  0.55629970    -0.23600
C957        C  0.20415050  0.37057207  0.55812256     0.26800
C958        C  0.20391257  0.35911943  0.56136662    -0.20400
C959        C  0.21497299  0.35876244  0.56466649    -0.10000
C960        C  0.22664479  0.36986816  0.56456427    -0.10600
C961        C  0.22702324  0.38138543  0.56042889    -0.03500
C962        C  0.21586763  0.38176084  0.55731356    -0.18600
H963        H  0.16245165  0.39475488  0.53915667     0.10500
H964        H  0.18334186  0.39691165  0.53629609     0.10500
H965        H  0.16813391  0.35997878  0.58974447     0.10200
H966        H  0.14750567  0.35774196  0.59126270     0.11300
H967        H  0.19808746  0.38944778  0.56127060     0.11400
H968        H  0.18367456  0.36082802  0.55281571     0.13300
H969        H  0.19508095  0.35034803  0.56193987     0.09800
H970        H  0.21435433  0.34972517  0.56756939     0.11900
H971        H  0.23591553  0.39008409  0.56004421     0.08500
H972        H  0.21653499  0.39079175  0.55427455     0.11300
C973        C  0.29577920  0.39152398  0.60168885    -0.03300
C974        C  0.30455130  0.38802244  0.59028752    -0.05900
C975        C  0.31681316  0.39463792  0.60533558    -0.21000
C976        C  0.32067463  0.40493450  0.63216653     0.24700
C977        C  0.31198910  0.40872651  0.64266273    -0.18600
C978        C  0.29965979  0.40209055  0.62732169    -0.08500
C979        C  0.33360780  0.41084854  0.64965881    -0.18800
C980        C  0.33939978  0.42167072  0.67146321    -0.23600
C981        C  0.35236298  0.42691692  0.68815378     0.26800
C982        C  0.35992886  0.43992272  0.69407379    -0.20400
C983        C  0.37234097  0.44512087  0.70796708    -0.10000
C984        C  0.37734844  0.43736307  0.71665914    -0.10600
C985        C  0.36963241  0.42433510  0.71227199    -0.03500
C986        C  0.35728726  0.41915985  0.69844057    -0.18600
H987        H  0.30183733  0.37991539  0.57065884     0.10500
H988        H  0.32325591  0.39148007  0.59663349     0.10500
H989        H  0.31446141  0.41646756  0.66359640     0.10200
H990        H  0.29302876  0.40490387  0.63696773     0.11300
H991        H  0.33875988  0.40604630  0.64308646     0.11400
H992        H  0.33489079  0.42720182  0.67559254     0.13300
H993        H  0.35631703  0.44610227  0.68691562     0.09800
H994        H  0.37809247  0.45521472  0.71111115     0.11900
H995        H  0.37319980  0.41809598  0.71899719     0.08500
H996        H  0.35164110  0.40906227  0.69605423     0.11300
C997        C  0.11311914  0.29739585  0.07502358    -0.03300
C998        C  0.12471592  0.30834721  0.06885486    -0.05900
C999        C  0.13582397  0.30798688  0.06924170    -0.21000
C1000       C  0.13572440  0.29670840  0.07611229     0.24700
C1001       C  0.12411222  0.28568537  0.08255871    -0.18600
C1002       C  0.11291223  0.28604674  0.08199167    -0.08500
C1003       C  0.14799065  0.29709697  0.07516340    -0.18800
C1004       C  0.15017405  0.28813707  0.09005795    -0.23600
C1005       C  0.16292860  0.28956506  0.09001383     0.26800
C1006       C  0.16418952  0.27885509  0.08972818    -0.20400
C1007       C  0.17609175  0.27999599  0.08880461    -0.10000
C1008       C  0.18695871  0.29189438  0.08834775    -0.10600
C1009       C  0.18569272  0.30257073  0.09000139    -0.03500
C1010       C  0.17387055  0.30144221  0.09114907    -0.18600
H1011       H  0.12522607  0.31725022  0.06339763     0.10500
H1012       H  0.14458118  0.31662454  0.06415414     0.10500
H1013       H  0.12356490  0.27675477  0.08727574     0.10200
H1014       H  0.10409822  0.27744879  0.08666699     0.11300
H1015       H  0.15573682  0.30547989  0.06179403     0.11400
H1016       H  0.14251680  0.27949099  0.10231993     0.13300
H1017       H  0.15594302  0.26958953  0.08950039     0.09800
H1018       H  0.17678858  0.27159895  0.08778708     0.11900
H1019       H  0.19389000  0.31187077  0.09042712     0.08500
H1020       H  0.17340764  0.30993958  0.09341297     0.11300
C1021       C  0.23405409  0.31560203  0.96522166    -0.03300
C1022       C  0.24431796  0.32784422  0.96262986    -0.05900
C1023       C  0.24765351  0.33408535  0.92436344    -0.21000
C1024       C  0.24091010  0.32814717  0.88800004     0.24700
C1025       C  0.23069992  0.31583701  0.89061636    -0.18600
C1026       C  0.22734404  0.30962893  0.92883921    -0.08500
C1027       C  0.24437597  0.33522431  0.84828596    -0.18800
C1028       C  0.24213760  0.32960973  0.81073758    -0.23600
C1029       C  0.24543325  0.33659555  0.77084439     0.26800
C1030       C  0.24738446  0.33110428  0.73549994    -0.20400
C1031       C  0.25025502  0.33726164  0.69712330    -0.10000
C1032       C  0.25110164  0.34899034  0.69329285    -0.10600
C1033       C  0.24904169  0.35445944  0.72852796    -0.03500
C1034       C  0.24619037  0.34831283  0.76693516    -0.18600
H1035       H  0.24965544  0.33265059  0.99023730     0.10500
H1036       H  0.25551189  0.34358594  0.92314463     0.10500
H1037       H  0.22505562  0.31108325  0.86351100     0.10200
H1038       H  0.21936144  0.30020188  0.93000319     0.11300
H1039       H  0.24940142  0.34538372  0.85029439     0.11400
H1040       H  0.23826401  0.31953808  0.80898302     0.13300
H1041       H  0.24672937  0.32203414  0.73762989     0.09800
H1042       H  0.25173746  0.33280707  0.67039394     0.11900
H1043       H  0.24949452  0.36343345  0.72630313     0.08500
H1044       H  0.24432688  0.35264589  0.79313749     0.11300
C1045       C  0.23627985  0.31365054  0.19342217    -0.03300
C1046       C  0.24651903  0.32592815  0.19552881    -0.05900
C1047       C  0.25060394  0.33210593  0.23383584    -0.21000
C1048       C  0.24456011  0.32620835  0.27104321     0.24700
C1049       C  0.23433036  0.31383157  0.26896683    -0.18600
C1050       C  0.23029579  0.30761198  0.23054246    -0.08500
C1051       C  0.24880860  0.33361465  0.31056126    -0.18800
C1052       C  0.24561934  0.32861039  0.34902851    -0.23600
C1053       C  0.24932848  0.33616834  0.38823568     0.26800
C1054       C  0.24857824  0.33010762  0.42603856    -0.20400
C1055       C  0.25115619  0.33655600  0.46394261    -0.10000
C1056       C  0.25449529  0.34923877  0.46501297    -0.10600
C1057       C  0.25541958  0.35540687  0.42728283    -0.03500
C1058       C  0.25282803  0.34894763  0.38926825    -0.18600
H1059       H  0.25131722  0.33083111  0.16743293     0.10500
H1060       H  0.25845018  0.34162440  0.23431217     0.10500
H1061       H  0.22915191  0.30899418  0.29652705     0.10200
H1062       H  0.22229037  0.29819235  0.22976678     0.11300
H1063       H  0.25503264  0.34364474  0.30748872     0.11400
H1064       H  0.24025895  0.31850824  0.35245366     0.13300
H1065       H  0.24583846  0.32027749  0.42631039     0.09800
H1066       H  0.25032517  0.33153429  0.49252767     0.11900
H1067       H  0.25785344  0.36515121  0.42721522     0.08500
H1068       H  0.25318710  0.35392452  0.36112681     0.11300
C1069       C  0.23621583  0.27327404  0.04854871    -0.03300
C1070       C  0.24901153  0.27758501  0.05454311    -0.05900
C1071       C  0.25455374  0.27122097  0.03692135    -0.21000
C1072       C  0.24748804  0.26035683  0.01287537     0.24700
C1073       C  0.23454248  0.25574677  0.00797922    -0.18600
C1074       C  0.22897215  0.26215947  0.02572362    -0.08500
C1075       C  0.25430582  0.25481197  0.99164652    -0.18800
C1076       C  0.24893322  0.24343940  0.97318070    -0.23600
C1077       C  0.25654605  0.23867068  0.95271987     0.26800
C1078       C  0.25236888  0.22577677  0.95326173    -0.20400
C1079       C  0.25987801  0.22122559  0.93725461    -0.10000
C1080       C  0.27164194  0.22949204  0.91994631    -0.10600
C1081       C  0.27546709  0.24228066  0.91710802    -0.03500
C1082       C  0.26800229  0.24682024  0.93317924    -0.18600
H1083       H  0.25486742  0.28614061  0.07180992     0.10500
H1084       H  0.26452184  0.27500935  0.04129782     0.10500
H1085       H  0.22876179  0.24751548  0.98928434     0.10200
H1086       H  0.21910433  0.25868277  0.02027933     0.11300
H1087       H  0.26446445  0.26040442  0.99223478     0.11400
H1088       H  0.23889616  0.23716082  0.97518628     0.13300
H1089       H  0.24350129  0.21927817  0.96755673     0.09800
H1090       H  0.25667676  0.21131517  0.93975620     0.11900
H1091       H  0.28442740  0.24886651  0.90354704     0.08500
H1092       H  0.27129719  0.25674300  0.93062586     0.11300
C1093       C  0.41978287  0.44131376  0.62085795    -0.03300
C1094       C  0.41881623  0.44783943  0.58653120    -0.05900
C1095       C  0.42026278  0.44465635  0.54599631    -0.21000
C1096       C  0.42282785  0.43496731  0.53876480     0.24700
C1097       C  0.42352993  0.42822030  0.57308724    -0.18600
C1098       C  0.42202429  0.43138493  0.61377301    -0.08500
C1099       C  0.42453632  0.43216131  0.49498566    -0.18800
C1100       C  0.43131468  0.42680917  0.48433286    -0.23600
C1101       C  0.43378772  0.42487335  0.44036882     0.26800
C1102       C  0.44435837  0.42383091  0.43190191    -0.20400
C1103       C  0.44704871  0.42193899  0.39119730    -0.10000
C1104       C  0.43916321  0.42094415  0.35795330    -0.10600
C1105       C  0.42853104  0.42191280  0.36624524    -0.03500
C1106       C  0.42582932  0.42381572  0.40707802    -0.18600
H1107       H  0.41697465  0.45546231  0.59098056     0.10500
H1108       H  0.41954808  0.44991645  0.52016859     0.10500
H1109       H  0.42508549  0.42042165  0.56870298     0.10200
H1110       H  0.42263021  0.42608384  0.63965625     0.11300
H1111       H  0.42084447  0.43552196  0.47066584     0.11400
H1112       H  0.43598489  0.42451849  0.50855384     0.13300
H1113       H  0.45060966  0.42454667  0.45688780     0.09800
H1114       H  0.45530135  0.42119592  0.38579335     0.11900
H1115       H  0.42222934  0.42105380  0.34125359     0.08500
H1116       H  0.41738834  0.42419591  0.41240593     0.11300
C1117       C  0.43517623  0.41685723  0.12185362    -0.03300
C1118       C  0.43869810  0.41247225  0.08701920    -0.05900
C1119       C  0.43553201  0.41425404  0.04676405    -0.21000
C1120       C  0.42885818  0.42054809  0.04018072     0.24700
C1121       C  0.42513110  0.42476966  0.07521242    -0.18600
C1122       C  0.42829563  0.42295850  0.11559977    -0.08500
C1123       C  0.42598276  0.42233821  0.99634084    -0.18800
C1124       C  0.42278906  0.43085715  0.98457113    -0.23600
C1125       C  0.42065936  0.43320623  0.94042592     0.26800
C1126       C  0.41497496  0.44043055  0.93311224    -0.20400
C1127       C  0.41333990  0.44351160  0.89254196    -0.10000
C1128       C  0.41738263  0.43946807  0.85812122    -0.10600
C1129       C  0.42294759  0.43212121  0.86512792    -0.03500
C1130       C  0.42462258  0.42905237  0.90579338    -0.18600
H1131       H  0.44400594  0.40773274  0.09082855     0.10500
H1132       H  0.43847092  0.41083104  0.02054231     0.10500
H1133       H  0.41967967  0.42934891  0.07188333     0.10200
H1134       H  0.42541878  0.42639785  0.14192567     0.11300
H1135       H  0.42694416  0.41656228  0.97288619     0.11400
H1136       H  0.42184169  0.43662776  0.00810392     0.13300
H1137       H  0.41187944  0.44382561  0.95898978     0.09800
H1138       H  0.40904035  0.44921275  0.88816517     0.11900
H1139       H  0.42625183  0.42896217  0.83918970     0.08500
H1140       H  0.42933142  0.42374362  0.90960919     0.11300
C1141       C  0.38966559  0.29512472  0.37868468    -0.03300
C1142       C  0.38609134  0.30377204  0.39112145    -0.05900
C1143       C  0.39270529  0.31616495  0.37726767    -0.21000
C1144       C  0.40299216  0.32020581  0.35044237     0.24700
C1145       C  0.40684890  0.31162789  0.33916813    -0.18600
C1146       C  0.40028282  0.29923138  0.35344802    -0.08500
C1147       C  0.40871512  0.33311590  0.33307311    -0.18800
C1148       C  0.41934414  0.33885034  0.31052439    -0.23600
C1149       C  0.42416818  0.35156836  0.29257932     0.26800
C1150       C  0.43711604  0.35946493  0.28713009    -0.20400
C1151       C  0.44190619  0.37171159  0.27233545    -0.10000
C1152       C  0.43379405  0.37620623  0.26223458    -0.10600
C1153       C  0.42081853  0.36809518  0.26567413    -0.03500
C1154       C  0.41604668  0.35590314  0.28052853    -0.18600
H1155       H  0.37795749  0.30086627  0.41067522     0.10500
H1156       H  0.38952335  0.32253431  0.38660569     0.10500
H1157       H  0.41459292  0.31421595  0.31819813     0.10200
H1158       H  0.40316511  0.29270952  0.34315213     0.11300
H1159       H  0.40385289  0.33820453  0.33957070     0.11400
H1160       H  0.42499588  0.33448603  0.30642519     0.13300
H1161       H  0.44355411  0.35627870  0.29552503     0.09800
H1162       H  0.45195565  0.37775635  0.26982382     0.11900
H1163       H  0.41433524  0.37125975  0.25771969     0.08500
H1164       H  0.40598864  0.34991612  0.28256678     0.11300
C1165       C  0.35180693  0.25475906  0.51821457    -0.03300
C1166       C  0.35958712  0.25753037  0.55329696    -0.05900
C1167       C  0.35457259  0.25546091  0.59342060    -0.21000
C1168       C  0.34167210  0.25050665  0.59943981     0.24700
C1169       C  0.33394356  0.24819336  0.56424380    -0.18600
C1170       C  0.33897603  0.25026861  0.52406025    -0.08500
C1171       C  0.33679331  0.24789413  0.64285361    -0.18800
C1172       C  0.32465590  0.24021157  0.65267366    -0.23600
C1173       C  0.32005150  0.23690774  0.69626617     0.26800
C1174       C  0.30843753  0.22603388  0.70313865    -0.20400
C1175       C  0.30381975  0.22241978  0.74355221    -0.10000
C1176       C  0.31071261  0.22964561  0.77800231    -0.10600
C1177       C  0.32224480  0.24061172  0.77127566    -0.03500
C1178       C  0.32683588  0.24427520  0.73085265    -0.18600
H1179       H  0.36953178  0.26109137  0.54974003     0.10500
H1180       H  0.36077982  0.25748756  0.61988572     0.10500
H1181       H  0.32403925  0.24480701  0.56732629     0.10200
H1182       H  0.33278435  0.24818051  0.49752803     0.11300
H1183       H  0.34371590  0.25183343  0.66761276     0.11400
H1184       H  0.31785188  0.23543933  0.62803141     0.13300
H1185       H  0.30296984  0.22022496  0.67714789     0.09800
H1186       H  0.29489279  0.21391589  0.74784638     0.11900
H1187       H  0.32769499  0.24641691  0.79728990     0.08500
H1188       H  0.33560450  0.25294583  0.72707616     0.11300
C1189       C  0.31589550  0.23108518  0.01049543    -0.03300
C1190       C  0.32833858  0.24098524  0.01299648    -0.05900
C1191       C  0.33441154  0.24474144  0.05167942    -0.21000
C1192       C  0.32813218  0.23875716  0.08853267     0.24700
C1193       C  0.31567615  0.22880943  0.08580637    -0.18600
C1194       C  0.30963122  0.22507259  0.04725644    -0.08500
C1195       C  0.33501713  0.24262282  0.12890522    -0.18800
C1196       C  0.32924671  0.24034786  0.16616057    -0.23600
C1197       C  0.33595126  0.24345170  0.20685059     0.26800
C1198       C  0.32986427  0.24439561  0.24241104    -0.20400
C1199       C  0.33572234  0.24702676  0.28148231    -0.10000
C1200       C  0.34777851  0.24869861  0.28577048    -0.10600
C1201       C  0.35378669  0.24751447  0.25040908    -0.03500
C1202       C  0.34793646  0.24487815  0.21137605    -0.18600
H1203       H  0.33340560  0.24573388  0.98507057     0.10500
H1204       H  0.34405192  0.25232630  0.05282849     0.10500
H1205       H  0.31062549  0.22362366  0.11311287     0.10200
H1206       H  0.30007021  0.21732942  0.04620610     0.11300
H1207       H  0.34517046  0.24774636  0.12757694     0.11400
H1208       H  0.31916648  0.23633661  0.16722308     0.13300
H1209       H  0.32055984  0.24315812  0.23991393     0.09800
H1210       H  0.33084244  0.24780305  0.30827669     0.11900
H1211       H  0.36302263  0.24858935  0.25292228     0.08500
H1212       H  0.35276136  0.24375036  0.18515265     0.11300
C1213       C  0.81241631  0.70131995  0.91939958    -0.03300
C1214       C  0.81326803  0.69109345  0.93436532    -0.05900
C1215       C  0.82463489  0.69129762  0.93386650    -0.21000
C1216       C  0.83548557  0.70168518  0.91822341     0.24700
C1217       C  0.83467761  0.71199759  0.90315621    -0.18600
C1218       C  0.82322060  0.71180795  0.90389048    -0.08500
C1219       C  0.84715818  0.70096028  0.91782830    -0.18800
C1220       C  0.85827430  0.70968062  0.90205761    -0.23600
C1221       C  0.86922214  0.70773395  0.90017509     0.26800
C1222       C  0.88142246  0.71815263  0.89978803    -0.20400
C1223       C  0.89186102  0.71652340  0.89816634    -0.10000
C1224       C  0.89025015  0.70442564  0.89646090    -0.10600
C1225       C  0.87805157  0.69403629  0.89576034    -0.03500
C1226       C  0.86767156  0.69565015  0.89738810    -0.18600
H1227       H  0.80511382  0.68287488  0.94664105     0.10500
H1228       H  0.82490917  0.68320860  0.94559643     0.10500
H1229       H  0.84275208  0.72020801  0.89075640     0.10200
H1230       H  0.82279602  0.71981072  0.89216433     0.11300
H1231       H  0.84644355  0.69257047  0.93136533     0.11400
H1232       H  0.85957875  0.71851384  0.89064606     0.13300
H1233       H  0.88287717  0.72756118  0.90130041     0.09800
H1234       H  0.90116812  0.72469999  0.89856124     0.11900
H1235       H  0.87650180  0.68459434  0.89407392     0.08500
H1236       H  0.85846537  0.68737842  0.89574394     0.11300
C1237       C  0.76530429  0.72388398  0.94242686    -0.03300
C1238       C  0.75336990  0.72073021  0.92763001    -0.05900
C1239       C  0.74778284  0.72762533  0.93985117    -0.21000
C1240       C  0.75391789  0.73781324  0.96739032     0.24700
C1241       C  0.76610667  0.74129053  0.98110665    -0.18600
C1242       C  0.77176119  0.73440734  0.96850224    -0.08500
C1243       C  0.74675394  0.74374012  0.98299869    -0.18800
C1244       C  0.75156069  0.75438950  0.00565313    -0.23600
C1245       C  0.74357534  0.75929374  0.02202779     0.26800
C1246       C  0.74870383  0.77226257  0.02744867    -0.20400
C1247       C  0.74123080  0.77710878  0.04128220    -0.10000
C1248       C  0.72851166  0.76904423  0.05038659    -0.10600
C1249       C  0.72352185  0.75604436  0.04670144    -0.03500
C1250       C  0.73096499  0.75121422  0.03285279    -0.18600
H1251       H  0.74817114  0.71267539  0.90746270     0.10500
H1252       H  0.73842288  0.72472003  0.92867300     0.10500
H1253       H  0.77113963  0.74895337  0.00273930     0.10200
H1254       H  0.78093041  0.73695953  0.98068769     0.11300
H1255       H  0.73685710  0.73898702  0.97506834     0.11400
H1256       H  0.76156953  0.75994779  0.01112533     0.13300
H1257       H  0.75842968  0.77867476  0.01992886     0.09800
H1258       H  0.74532949  0.78716993  0.04393046     0.11900
H1259       H  0.71378337  0.74958614  0.05391563     0.08500
H1260       H  0.72680511  0.74114224  0.03076544     0.11300
C1261       C  0.52575811  0.56040448  0.74121766    -0.03300
C1262       C  0.52472211  0.54907679  0.72800410    -0.05900
C1263       C  0.51301371  0.53828012  0.72405138    -0.21000
C1264       C  0.50203464  0.53844829  0.73373891     0.24700
C1265       C  0.50301784  0.54981023  0.74685963    -0.18600
C1266       C  0.51480396  0.56070985  0.75042649    -0.08500
C1267       C  0.48991928  0.52650844  0.72933558    -0.18800
C1268       C  0.47918634  0.52388856  0.74858403    -0.23600
C1269       C  0.46781036  0.51118191  0.74694673     0.26800
C1270       C  0.45589502  0.50983889  0.75183940    -0.20400
C1271       C  0.44509067  0.49792695  0.75086882    -0.10000
C1272       C  0.44604971  0.48714181  0.74549742    -0.10600
C1273       C  0.45797409  0.48848305  0.74146534    -0.03500
C1274       C  0.46871504  0.50032299  0.74236768    -0.18600
H1275       H  0.53298508  0.54856294  0.72034318     0.10500
H1276       H  0.51254947  0.52969480  0.71372466     0.10500
H1277       H  0.49477151  0.55040159  0.75376564     0.10200
H1278       H  0.51535246  0.56936043  0.76034807     0.11300
H1279       H  0.49008167  0.51927842  0.71053246     0.11400
H1280       H  0.47867172  0.53105543  0.76657416     0.13300
H1281       H  0.45494563  0.51802882  0.75604784     0.09800
H1282       H  0.43601027  0.49715356  0.75429915     0.11900
H1283       H  0.45902971  0.48034076  0.73775591     0.08500
H1284       H  0.47771067  0.50086143  0.74034820     0.11300
C1285       C  0.60953358  0.70993916  0.59935264    -0.03300
C1286       C  0.59668199  0.70509379  0.60658715    -0.05900
C1287       C  0.58914416  0.69276421  0.62103232    -0.21000
C1288       C  0.59435397  0.68513863  0.62911657     0.24700
C1289       C  0.60707955  0.68983564  0.61988328    -0.18600
C1290       C  0.61456393  0.70207826  0.60541173    -0.08500
C1291       C  0.58646579  0.67235404  0.64713697    -0.18800
C1292       C  0.59137879  0.66726531  0.67287383    -0.23600
C1293       C  0.58466849  0.65433312  0.69063843     0.26800
C1294       C  0.59164608  0.65068097  0.71561111    -0.20400
C1295       C  0.58641687  0.63840648  0.73016812    -0.10000
C1296       C  0.57397831  0.62943453  0.72059292    -0.10600
C1297       C  0.56672091  0.63313128  0.69730050    -0.03500
C1298       C  0.57201619  0.64545343  0.68222820    -0.18600
H1299       H  0.59251918  0.71090432  0.60187488     0.10500
H1300       H  0.57932265  0.68931046  0.62712486     0.10500
H1301       H  0.61132229  0.68407738  0.62387313     0.10200
H1302       H  0.62438543  0.70545988  0.59958946     0.11300
H1303       H  0.57653994  0.66737449  0.63993682     0.11400
H1304       H  0.60119454  0.67296014  0.68141163     0.13300
H1305       H  0.60136799  0.65727576  0.72292581     0.09800
H1306       H  0.59223087  0.63585916  0.74817560     0.11900
H1307       H  0.55710410  0.62637095  0.68933609     0.08500
H1308       H  0.56624217  0.64780548  0.66332239     0.11300
C1309       C  0.68739760  0.77310286  0.95707280    -0.03300
C1310       C  0.67501539  0.76321082  0.95285683    -0.05900
C1311       C  0.66922464  0.75999669  0.91368335    -0.21000
C1312       C  0.67565445  0.76654567  0.87771749     0.24700
C1313       C  0.68809522  0.77648995  0.88200073    -0.18600
C1314       C  0.69389181  0.77969037  0.92125461    -0.08500
C1315       C  0.66877434  0.76298019  0.83709916    -0.18800
C1316       C  0.67415388  0.76692485  0.79936756    -0.23600
C1317       C  0.66688513  0.76345611  0.75954484     0.26800
C1318       C  0.67298464  0.76398007  0.72204738    -0.20400
C1319       C  0.66648162  0.76090303  0.68400944    -0.10000
C1320       C  0.65375059  0.75736057  0.68264120    -0.10600
C1321       C  0.64769976  0.75705885  0.71997189    -0.03500
C1322       C  0.65417435  0.76009274  0.75795728    -0.18600
H1323       H  0.66976820  0.75797528  0.97989743     0.10500
H1324       H  0.65962601  0.75236114  0.91151829     0.10500
H1325       H  0.69335940  0.78201453  0.85553104     0.10200
H1326       H  0.70344304  0.78740448  0.92361076     0.11300
H1327       H  0.65875754  0.75651377  0.83860329     0.11400
H1328       H  0.68425884  0.77253718  0.79697087     0.13300
H1329       H  0.68279819  0.76668591  0.72222434     0.09800
H1330       H  0.67141309  0.76129413  0.65569065     0.11900
H1331       H  0.63792313  0.75447946  0.71984494     0.08500
H1332       H  0.64921291  0.76000857  0.78576956     0.11300
C1333       C  0.64709177  0.74891249  0.45136045    -0.03300
C1334       C  0.63936289  0.74655788  0.41632647    -0.05900
C1335       C  0.64435942  0.74860304  0.37602407    -0.21000
C1336       C  0.65719397  0.75309195  0.36969242     0.24700
C1337       C  0.66486540  0.75520543  0.40493192    -0.18600
C1338       C  0.65986745  0.75318393  0.44517858    -0.08500
C1339       C  0.66203659  0.75517372  0.32598001    -0.18800
C1340       C  0.67431251  0.76179687  0.31577731    -0.23600
C1341       C  0.67933363  0.76419543  0.27223731     0.26800
C1342       C  0.69232897  0.77193783  0.26669766    -0.20400
C1343       C  0.69755142  0.77497028  0.22676363    -0.10000
C1344       C  0.68989814  0.77032865  0.19120497    -0.10600
C1345       C  0.67696390  0.76227659  0.19648226    -0.03500
C1346       C  0.67172367  0.75921305  0.23643891    -0.18600
H1347       H  0.62948364  0.74329528  0.42007291     0.10500
H1348       H  0.63817131  0.74679141  0.34964001     0.10500
H1349       H  0.67470503  0.75829753  0.40196163     0.10200
H1350       H  0.66605931  0.75506355  0.47157898     0.11300
H1351       H  0.65502690  0.75131518  0.30152412     0.11400
H1352       H  0.68121476  0.76610777  0.34042884     0.13300
H1353       H  0.69849010  0.77584599  0.29346167     0.09800
H1354       H  0.70756384  0.78115736  0.22373581     0.11900
H1355       H  0.67083330  0.75849687  0.16961770     0.08500
H1356       H  0.66172251  0.75304813  0.23862065     0.11300
C1357       C  0.48365260  0.44323076  0.22774932    -0.03300
C1358       C  0.49400533  0.44144041  0.22978517    -0.05900
C1359       C  0.50621186  0.45175870  0.22926714    -0.21000
C1360       C  0.50826139  0.46401392  0.22694560     0.24700
C1361       C  0.49785046  0.46571049  0.22326302    -0.18600
C1362       C  0.48570705  0.45544463  0.22395009    -0.08500
C1363       C  0.52129733  0.47484169  0.22753023    -0.18800
C1364       C  0.52402624  0.48624060  0.24154777    -0.23600
C1365       C  0.53664640  0.49769383  0.24103817     0.26800
C1366       C  0.53732324  0.50921710  0.24849092    -0.20400
C1367       C  0.54881285  0.52034672  0.24890407    -0.10000
C1368       C  0.55998755  0.52026060  0.24213076    -0.10600
C1369       C  0.55942155  0.50877734  0.23460470    -0.03500
C1370       C  0.54784487  0.49756118  0.23404451    -0.18600
H1371       H  0.49266742  0.43209911  0.23249292     0.10500
H1372       H  0.51406507  0.45018549  0.23147746     0.10500
H1373       H  0.49899580  0.47493279  0.21940614     0.10200
H1374       H  0.47790107  0.45709035  0.22167282     0.11300
H1375       H  0.52866487  0.47324013  0.21658421     0.11400
H1376       H  0.51650264  0.48741079  0.25383993     0.13300
H1377       H  0.52888949  0.50963689  0.25396382     0.09800
H1378       H  0.54893132  0.52904719  0.25478033     0.11900
H1379       H  0.56791566  0.50846459  0.22937304     0.08500
H1380       H  0.54780490  0.48889851  0.22876392     0.11300
C1381       C  0.58877294  0.56770036  0.35954685    -0.03300
C1382       C  0.58620297  0.57754040  0.36142750    -0.05900
C1383       C  0.58404526  0.58148701  0.39980796    -0.21000
C1384       C  0.58450530  0.57575507  0.43707552     0.24700
C1385       C  0.58716673  0.56592781  0.43504608    -0.18600
C1386       C  0.58930648  0.56198894  0.39670380    -0.08500
C1387       C  0.58140598  0.57977037  0.47687019    -0.18800
C1388       C  0.58392703  0.57689440  0.51485049    -0.23600
C1389       C  0.58001581  0.58008822  0.55458158     0.26800
C1390       C  0.58600513  0.57992262  0.59165017    -0.20400
C1391       C  0.58236265  0.58241647  0.62998352    -0.10000
C1392       C  0.57259293  0.58506826  0.63204320    -0.10600
C1393       C  0.56647477  0.58510889  0.59510643    -0.03500
C1394       C  0.57010693  0.58260667  0.55674677    -0.18600
H1395       H  0.58565992  0.58205068  0.33318998     0.10500
H1396       H  0.58189476  0.58897906  0.40034522     0.10500
H1397       H  0.58725210  0.56094452  0.46259425     0.10200
H1398       H  0.59120623  0.55432751  0.39610966     0.11300
H1399       H  0.57699744  0.58544273  0.47446178     0.11400
H1400       H  0.58933613  0.57221908  0.51747056     0.13300
H1401       H  0.59354386  0.57784837  0.59095863     0.09800
H1402       H  0.58717226  0.58223286  0.65802456     0.11900
H1403       H  0.55879764  0.58697576  0.59588401     0.08500
H1404       H  0.56492355  0.58238311  0.52923267     0.11300
C1405       C  0.59004300  0.56561309  0.12769829    -0.03300
C1406       C  0.59134734  0.55958653  0.09257528    -0.05900
C1407       C  0.58954780  0.56284093  0.05242688    -0.21000
C1408       C  0.58638540  0.57218796  0.04621283     0.24700
C1409       C  0.58522312  0.57834171  0.08153935    -0.18600
C1410       C  0.58698689  0.57503950  0.12176610    -0.08500
C1411       C  0.58452754  0.57514505  0.00242885    -0.18800
C1412       C  0.57975183  0.58249459  0.99179686    -0.23600
C1413       C  0.57738599  0.58476778  0.94783137     0.26800
C1414       C  0.56860388  0.58860314  0.94040099    -0.20400
C1415       C  0.56579559  0.59054162  0.89975373    -0.10000
C1416       C  0.57179299  0.58880187  0.86543150    -0.10600
C1417       C  0.58084882  0.58530966  0.87272512    -0.03500
C1418       C  0.58365687  0.58334997  0.91345548    -0.18600
H1419       H  0.59367096  0.55226610  0.09611274     0.10500
H1420       H  0.59056319  0.55794885  0.02603006     0.10500
H1421       H  0.58304964  0.58575627  0.07865725     0.10200
H1422       H  0.58594254  0.57986912  0.14828404     0.11300
H1423       H  0.58673076  0.57053212  0.97785504     0.11400
H1424       H  0.57671293  0.58648907  0.01597094     0.13300
H1425       H  0.56371774  0.58990223  0.96616733     0.09800
H1426       H  0.55880726  0.59327331  0.89518355     0.11900
H1427       H  0.58570950  0.58400748  0.84690172     0.08500
H1428       H  0.59080034  0.58083525  0.91771502     0.11300
C1429       C  0.85221570  0.62177982  0.40758650    -0.03300
C1430       C  0.84143610  0.60989471  0.40344018    -0.05900
C1431       C  0.82946892  0.60854172  0.40633307    -0.21000
C1432       C  0.82807250  0.61899953  0.41392541     0.24700
C1433       C  0.83891525  0.63090007  0.41704368    -0.18600
C1434       C  0.85079115  0.63224226  0.41406947    -0.08500
C1435       C  0.81528582  0.61739543  0.41674411    -0.18800
C1436       C  0.81299359  0.62547168  0.43801098    -0.23600
C1437       C  0.80081731  0.62523999  0.43835841     0.26800
C1438       C  0.80096239  0.63630207  0.44963761    -0.20400
C1439       C  0.78998588  0.63691361  0.44913112    -0.10000
C1440       C  0.77849782  0.62640578  0.43786893    -0.10600
C1441       C  0.77819498  0.61516833  0.42780800    -0.03500
C1442       C  0.78926165  0.61458009  0.42792629    -0.18600
H1443       H  0.84225598  0.60167866  0.39798345     0.10500
H1444       H  0.82128534  0.59929715  0.40306957     0.10500
H1445       H  0.83832738  0.63928986  0.42095714     0.10200
H1446       H  0.85890528  0.64155352  0.41680601     0.11300
H1447       H  0.80773079  0.60948290  0.40048153     0.11400
H1448       H  0.82062518  0.63312423  0.45499014     0.13300
H1449       H  0.80968351  0.64463318  0.45808218     0.09800
H1450       H  0.79052747  0.64569567  0.45720461     0.11900
H1451       H  0.76944916  0.60691057  0.41914580     0.08500
H1452       H  0.78868385  0.60578838  0.42002855     0.11300
C1453       C  0.71033756  0.60504377  0.39466822    -0.03300
C1454       C  0.70592143  0.59215230  0.39011060    -0.05900
C1455       C  0.69382546  0.58408615  0.37451068    -0.21000
C1456       C  0.68601897  0.58878873  0.36260350     0.24700
C1457       C  0.69032222  0.60162195  0.36856035    -0.18600
C1458       C  0.70233251  0.60963644  0.38426535    -0.08500
C1459       C  0.67338221  0.58020947  0.34456122    -0.18800
C1460       C  0.66824979  0.58416360  0.31545226    -0.23600
C1461       C  0.65536722  0.57667464  0.29760903     0.26800
C1462       C  0.65201048  0.58215882  0.26550458    -0.20400
C1463       C  0.63968826  0.57654254  0.25105520    -0.10000
C1464       C  0.63036343  0.56520908  0.26808851    -0.10600
C1465       C  0.63376503  0.55923003  0.29839784    -0.03500
C1466       C  0.64615745  0.56493632  0.31325985    -0.18600
H1467       H  0.71187972  0.58834738  0.39794915     0.10500
H1468       H  0.69067290  0.57421369  0.37075643     0.10500
H1469       H  0.68440313  0.60550692  0.36125988     0.10200
H1470       H  0.70540993  0.61949901  0.38778756     0.11300
H1471       H  0.66854670  0.57051136  0.35455009     0.11400
H1472       H  0.67385328  0.59368570  0.30394397     0.13300
H1473       H  0.65886531  0.59112660  0.25257342     0.09800
H1474       H  0.63735941  0.58133802  0.22752630     0.11900
H1475       H  0.62672419  0.55050845  0.31222237     0.08500
H1476       H  0.64827086  0.56036355  0.33806276     0.11300
C1477       C  0.74679912  0.64595805  0.54105603    -0.03300
C1478       C  0.75129802  0.65889062  0.54364455    -0.05900
C1479       C  0.75266961  0.66468435  0.58226328    -0.21000
C1480       C  0.74960742  0.65774183  0.61938129     0.24700
C1481       C  0.74464605  0.64466323  0.61665748    -0.18600
C1482       C  0.74325965  0.63885705  0.57784274    -0.08500
C1483       C  0.75245554  0.66477058  0.65962966    -0.18800
C1484       C  0.75063532  0.65959910  0.69786380    -0.23600
C1485       C  0.75491794  0.66712068  0.73707790     0.26800
C1486       C  0.74945739  0.66128552  0.77502092    -0.20400
C1487       C  0.75372592  0.66779125  0.81278682    -0.10000
C1488       C  0.76363123  0.68027229  0.81345064    -0.10600
C1489       C  0.76909391  0.68615128  0.77560282    -0.03500
C1490       C  0.76483269  0.67965688  0.73784043    -0.18600
H1491       H  0.75406078  0.66461941  0.51582122     0.10500
H1492       H  0.75646132  0.67473360  0.58314491     0.10500
H1493       H  0.74205664  0.63883700  0.64408327     0.10200
H1494       H  0.73970468  0.62885369  0.57671169     0.11300
H1495       H  0.75655998  0.67485211  0.65729471     0.11400
H1496       H  0.74589905  0.64951044  0.70121075     0.13300
H1497       H  0.74191481  0.65161700  0.77547296     0.09800
H1498       H  0.74937529  0.66299309  0.84152484     0.11900
H1499       H  0.77683256  0.69572255  0.77521990     0.08500
H1500       H  0.76963539  0.68440739  0.70963805     0.11300
C1501       C  0.76848480  0.68252710  0.04233617    -0.03300
C1502       C  0.75860134  0.67019054  0.04736695    -0.05900
C1503       C  0.75598943  0.66454828  0.08658046    -0.21000
C1504       C  0.76316901  0.67110690  0.12157554     0.24700
C1505       C  0.77313762  0.68347360  0.11642101    -0.18600
C1506       C  0.77572729  0.68911934  0.07717739    -0.08500
C1507       C  0.76027841  0.66443986  0.16213031    -0.18800
C1508       C  0.76461300  0.67011608  0.19927138    -0.23600
C1509       C  0.76178331  0.66303716  0.23893865     0.26800
C1510       C  0.76197988  0.66903770  0.27633512    -0.20400
C1511       C  0.75921987  0.66258182  0.31416120    -0.10000
C1512       C  0.75637745  0.65004616  0.31528038    -0.10600
C1513       C  0.75650220  0.64413431  0.27807817    -0.03500
C1514       C  0.75921535  0.65056285  0.24028602    -0.18600
H1515       H  0.75294238  0.66486099  0.02093555     0.10500
H1516       H  0.74834807  0.65497849  0.08953941     0.10500
H1517       H  0.77916619  0.68876758  0.14212636     0.10200
H1518       H  0.78351044  0.69860475  0.07401509     0.11300
H1519       H  0.75398575  0.65436670  0.16121543     0.11400
H1520       H  0.76994302  0.68025892  0.20130399     0.13300
H1521       H  0.76410657  0.67869067  0.27619795     0.09800
H1522       H  0.75928730  0.66738876  0.34250391     0.11900
H1523       H  0.75447002  0.63451482  0.27815603     0.08500
H1524       H  0.75946289  0.64576701  0.21239030     0.11300
C1525       C  0.62369443  0.85177613  0.55252056    -0.03300
C1526       C  0.61218182  0.84130386  0.54115435    -0.05900
C1527       C  0.61080390  0.82931876  0.54045963    -0.21000
C1528       C  0.62091842  0.82763587  0.55081290     0.24700
C1529       C  0.63235066  0.83814402  0.56297064    -0.18600
C1530       C  0.63372316  0.85005478  0.56357136    -0.08500
C1531       C  0.61922927  0.81482548  0.55051878    -0.18800
C1532       C  0.62890870  0.81289365  0.54433354    -0.23600
C1533       C  0.62837835  0.80060927  0.54735946     0.26800
C1534       C  0.63936886  0.80040961  0.53822692    -0.20400
C1535       C  0.63988839  0.78946897  0.54275224    -0.10000
C1536       C  0.62939704  0.77835439  0.55638853    -0.10600
C1537       C  0.61825880  0.77836646  0.56494743    -0.03500
C1538       C  0.61775081  0.78942721  0.56070446    -0.18600
H1539       H  0.60427513  0.84237977  0.53278639     0.10500
H1540       H  0.60185589  0.82135808  0.53155874     0.10500
H1541       H  0.64021566  0.83721773  0.57296388     0.10200
H1542       H  0.64265846  0.85793171  0.57304720     0.11300
H1543       H  0.60984362  0.80698117  0.55500126     0.11400
H1544       H  0.63797244  0.82089203  0.53664717     0.13300
H1545       H  0.64770998  0.80883537  0.52803319     0.09800
H1546       H  0.64859828  0.78975279  0.53573991     0.11900
H1547       H  0.61005044  0.76991556  0.57565962     0.08500
H1548       H  0.60911867  0.78914403  0.56858469     0.11300
C1549       C  0.56182673  0.93724574  0.69671271    -0.03300
C1550       C  0.55304127  0.92500559  0.68391020    -0.05900
C1551       C  0.55706889  0.91721417  0.66641779    -0.21000
C1552       C  0.56990010  0.92161916  0.66093775     0.24700
C1553       C  0.57864109  0.93366967  0.67552282    -0.18600
C1554       C  0.57464769  0.94138251  0.69305055    -0.08500
C1555       C  0.57412614  0.91355516  0.64068258    -0.18800
C1556       C  0.58453358  0.91856082  0.61702312    -0.23600
C1557       C  0.59058517  0.91171684  0.59977718     0.26800
C1558       C  0.60193888  0.91880322  0.57849848    -0.20400
C1559       C  0.60892719  0.91340638  0.56561480    -0.10000
C1560       C  0.60470327  0.90072178  0.57335677    -0.10600
C1561       C  0.59304404  0.89337814  0.59275502    -0.03500
C1562       C  0.58603415  0.89882419  0.60601350    -0.18600
H1563       H  0.54309737  0.92157764  0.68651495     0.10500
H1564       H  0.55016886  0.90788303  0.65606610     0.10500
H1565       H  0.58860800  0.93718126  0.67346602     0.10200
H1566       H  0.58164969  0.95071691  0.70305337     0.11300
H1567       H  0.56854448  0.90352046  0.64534484     0.11400
H1568       H  0.58929271  0.92857547  0.61098564     0.13300
H1569       H  0.60568110  0.92872076  0.57305191     0.09800
H1570       H  0.61785775  0.91929248  0.55062906     0.11900
H1571       H  0.58959327  0.88356379  0.59917994     0.08500
H1572       H  0.57732247  0.89296389  0.62204119     0.11300
C1573       C  0.58045118  0.01372310  0.34390177    -0.03300
C1574       C  0.58199987  0.00334952  0.35084764    -0.05900
C1575       C  0.58064756  0.99837363  0.39101126    -0.21000
C1576       C  0.57742862  0.00349442  0.42457695     0.24700
C1577       C  0.57594876  0.01391370  0.41753977    -0.18600
C1578       C  0.57748274  0.01898788  0.37766586    -0.08500
C1579       C  0.57580770  0.99799658  0.46681611    -0.18800
C1580       C  0.56712237  0.99743183  0.49335328    -0.23600
C1581       C  0.56499909  0.99180197  0.53543461     0.26800
C1582       C  0.55280013  0.98569050  0.55146748    -0.20400
C1583       C  0.55039401  0.98033290  0.59111364    -0.10000
C1584       C  0.56021514  0.98133822  0.61602131    -0.10600
C1585       C  0.57250618  0.98779719  0.60067073    -0.03500
C1586       C  0.57487746  0.99287573  0.56042360    -0.18600
H1587       H  0.58442521  0.99921005  0.32539014     0.10500
H1588       H  0.58194376  0.99041363  0.39579819     0.10500
H1589       H  0.57380268  0.01828707  0.44296961     0.10200
H1590       H  0.57634447  0.02705783  0.37326033     0.11300
H1591       H  0.58132274  0.99370731  0.47526084     0.11400
H1592       H  0.56074198  0.00052368  0.48290453     0.13300
H1593       H  0.54507651  0.98488751  0.53296191     0.09800
H1594       H  0.54084970  0.97545834  0.60245984     0.11900
H1595       H  0.58021217  0.98866336  0.61941860     0.08500
H1596       H  0.58442466  0.99780042  0.54918165     0.11300
C1597       C  0.58266103  0.01542593  0.11019601    -0.03300
C1598       C  0.57739960  0.01928077  0.07880128    -0.05900
C1599       C  0.57418346  0.01320021  0.04016077    -0.21000
C1600       C  0.57660215  0.00348366  0.03161924     0.24700
C1601       C  0.58230197  0.99990158  0.06239370    -0.18600
C1602       C  0.58514387  0.00571600  0.10165469    -0.08500
C1603       C  0.57231269  0.99668052  0.99148939    -0.18800
C1604       C  0.57959584  0.99397015  0.96782808    -0.23600
C1605       C  0.57524454  0.98779639  0.92669138     0.26800
C1606       C  0.58296896  0.99280772  0.89171178    -0.20400
C1607       C  0.57867198  0.98751002  0.85221234    -0.10000
C1608       C  0.56671616  0.97688518  0.84731863    -0.10600
C1609       C  0.55921853  0.97153736  0.88269066    -0.03500
C1610       C  0.56338453  0.97703519  0.92198137    -0.18600
H1611       H  0.57530756  0.02667440  0.08471727     0.10500
H1612       H  0.56974029  0.01604782  0.01689604     0.10500
H1613       H  0.58410420  0.99230765  0.05659845     0.10200
H1614       H  0.58916922  0.00256491  0.12543075     0.11300
H1615       H  0.56321391  0.99462312  0.97965154     0.11400
H1616       H  0.58921333  0.99723918  0.97724398     0.13300
H1617       H  0.59216374  0.00107227  0.89477959     0.09800
H1618       H  0.58464424  0.99178737  0.82544216     0.11900
H1619       H  0.54996803  0.96334684  0.87977461     0.08500
H1620       H  0.55734561  0.97291146  0.94870709     0.11300
C1621       C  0.77255899  0.14902592  0.41735319    -0.03300
C1622       C  0.77192032  0.15996004  0.41122256    -0.05900
C1623       C  0.78284346  0.17178412  0.41239858    -0.21000
C1624       C  0.79459575  0.17289519  0.41951450     0.24700
C1625       C  0.79511476  0.16192934  0.42709646    -0.18600
C1626       C  0.78425236  0.15016104  0.42566910    -0.08500
C1627       C  0.80612575  0.18554283  0.41914126    -0.18800
C1628       C  0.81743356  0.18718379  0.40880136    -0.23600
C1629       C  0.82941904  0.19941984  0.40736004     0.26800
C1630       C  0.83991296  0.19943169  0.39066479    -0.20400
C1631       C  0.85157527  0.21037265  0.38970962    -0.10000
C1632       C  0.85310161  0.22167858  0.40530583    -0.10600
C1633       C  0.84263261  0.22183829  0.42159268    -0.03500
C1634       C  0.83088346  0.21078757  0.42285730    -0.18600
H1635       H  0.76301903  0.15936001  0.40488094     0.10500
H1636       H  0.78214358  0.18006934  0.40695434     0.10500
H1637       H  0.80387056  0.16236035  0.43450615     0.10200
H1638       H  0.78501873  0.14191449  0.43115477     0.11300
H1639       H  0.80506841  0.19358599  0.42548147     0.11400
H1640       H  0.81798732  0.17902872  0.39942346     0.13300
H1641       H  0.83912747  0.19087219  0.37850364     0.09800
H1642       H  0.85944467  0.20995368  0.37677179     0.11900
H1643       H  0.84358136  0.23043518  0.43401811     0.08500
H1644       H  0.82312481  0.21121283  0.43653441     0.11300
C1645       C  0.70367884  0.09989090  0.38324480    -0.03300
C1646       C  0.69925806  0.10794103  0.37136548    -0.05900
C1647       C  0.68704356  0.10305238  0.35574235    -0.21000
C1648       C  0.67906062  0.09004563  0.35133110     0.24700
C1649       C  0.68327676  0.08201013  0.36559219    -0.18600
C1650       C  0.69545221  0.08688193  0.38108179    -0.08500
C1651       C  0.66649522  0.08510315  0.33137897    -0.18800
C1652       C  0.66087150  0.07419619  0.30991020    -0.23600
C1653       C  0.64837579  0.06851611  0.28893856     0.26800
C1654       C  0.64471400  0.05786278  0.26396726    -0.20400
C1655       C  0.63272469  0.05132026  0.24655817    -0.10000
C1656       C  0.62402736  0.05525735  0.25356612    -0.10600
C1657       C  0.62778647  0.06624554  0.27687800    -0.03500
C1658       C  0.63983815  0.07281050  0.29457544    -0.18600
H1659       H  0.70536747  0.11801245  0.37285865     0.10500
H1660       H  0.68397843  0.10945684  0.34569299     0.10500
H1661       H  0.67724105  0.07193428  0.36457639     0.10200
H1662       H  0.69851921  0.08043049  0.39053933     0.11300
H1663       H  0.66224989  0.09093528  0.33252982     0.11400
H1664       H  0.66584896  0.06908497  0.30658815     0.13300
H1665       H  0.65105384  0.05433628  0.25882722     0.09800
H1666       H  0.63012029  0.04289260  0.22874473     0.11900
H1667       H  0.62122877  0.06943836  0.28303302     0.08500
H1668       H  0.64218058  0.08090745  0.31373046     0.11300
C1669       C  0.89384335  0.18535995  0.88842240    -0.03300
C1670       C  0.89454998  0.17435735  0.88724970    -0.05900
C1671       C  0.88361093  0.16260452  0.88419932    -0.21000
C1672       C  0.87178630  0.16163621  0.88247799     0.24700
C1673       C  0.87118181  0.17273005  0.88206678    -0.18600
C1674       C  0.88206410  0.18441693  0.88539516    -0.08500
C1675       C  0.86028516  0.14899883  0.88095788    -0.18800
C1676       C  0.84911536  0.14695764  0.89480819    -0.23600
C1677       C  0.83719852  0.13468603  0.89444069     0.26800
C1678       C  0.82612045  0.13478093  0.90308700    -0.20400
C1679       C  0.81462653  0.12366149  0.90448699    -0.10000
C1680       C  0.81387055  0.11208167  0.89742899    -0.10600
C1681       C  0.82490252  0.11186686  0.88869708    -0.03500
C1682       C  0.83649102  0.12307420  0.88717096    -0.18600
H1683       H  0.90353080  0.17482877  0.88917729     0.10500
H1684       H  0.88436930  0.15423633  0.88395571     0.10500
H1685       H  0.86235721  0.17250062  0.87876367     0.10200
H1686       H  0.88124332  0.19275007  0.88546309     0.11300
H1687       H  0.86123211  0.14127469  0.86930923     0.11400
H1688       H  0.84854298  0.15477540  0.90772582     0.13300
H1689       H  0.82634138  0.14353807  0.90891389     0.09800
H1690       H  0.80630558  0.12414984  0.91138882     0.11900
H1691       H  0.82457888  0.10304661  0.88331236     0.08500
H1692       H  0.84478809  0.12251217  0.88102762     0.11300
C1693       C  0.74257264  0.10073891  0.52692946    -0.03300
C1694       C  0.73929866  0.10534120  0.56188442    -0.05900
C1695       C  0.74054003  0.10175821  0.60230275    -0.21000
C1696       C  0.74524608  0.09362727  0.60895735     0.24700
C1697       C  0.74818880  0.08874082  0.57381499    -0.18600
C1698       C  0.74688779  0.09228475  0.53337493    -0.08500
C1699       C  0.74698473  0.09060557  0.65285545    -0.18800
C1700       C  0.75496175  0.08659050  0.66386327    -0.23600
C1701       C  0.75780997  0.08454781  0.70769833     0.26800
C1702       C  0.76547924  0.07926759  0.71355416    -0.20400
C1703       C  0.76919766  0.07786888  0.75351254    -0.10000
C1704       C  0.76532306  0.08168447  0.78893120    -0.10600
C1705       C  0.75744645  0.08673600  0.78346046    -0.03500
C1706       C  0.75374815  0.08819336  0.74336291    -0.18600
H1707       H  0.73587762  0.11181709  0.55802458     0.10500
H1708       H  0.73805986  0.10558256  0.62857377     0.10500
H1709       H  0.75142778  0.08212246  0.57716559     0.10200
H1710       H  0.74938979  0.08849027  0.50709018     0.11300
H1711       H  0.74193007  0.09241289  0.67680164     0.11400
H1712       H  0.76014847  0.08508837  0.63956364     0.13300
H1713       H  0.76878911  0.07636162  0.68694988     0.09800
H1714       H  0.77525106  0.07392149  0.75662213     0.11900
H1715       H  0.75435330  0.08981782  0.81016972     0.08500
H1716       H  0.74797662  0.09243835  0.74079960     0.11300
C1717       C  0.76999212  0.08582081  0.02554011    -0.03300
C1718       C  0.77787664  0.08694051  0.05895659    -0.05900
C1719       C  0.77520650  0.08901488  0.09953316    -0.21000
C1720       C  0.76463489  0.09009292  0.10781204     0.24700
C1721       C  0.75662710  0.08881495  0.07438314    -0.18600
C1722       C  0.75931804  0.08674521  0.03366533    -0.08500
C1723       C  0.76219570  0.09220685  0.15178752    -0.18800
C1724       C  0.75509832  0.09722767  0.16250990    -0.23600
C1725       C  0.75311741  0.09982238  0.20644421     0.26800
C1726       C  0.74978294  0.10897310  0.21380996    -0.20400
C1727       C  0.74766376  0.11164718  0.25434682    -0.10000
C1728       C  0.74869420  0.10513460  0.28865182    -0.10600
C1729       C  0.75193232  0.09589384  0.28144722    -0.03500
C1730       C  0.75410678  0.09323947  0.24078239    -0.18600
H1731       H  0.78616469  0.08624650  0.05374500     0.10500
H1732       H  0.78149413  0.08986520  0.12457857     0.10500
H1733       H  0.74817745  0.08919428  0.07949543     0.10200
H1734       H  0.75300530  0.08578955  0.00858400     0.11300
H1735       H  0.76706288  0.09019286  0.17606347     0.11400
H1736       H  0.75113365  0.10028871  0.13815920     0.13300
H1737       H  0.74887340  0.11413910  0.18805869     0.09800
H1738       H  0.74515176  0.11880249  0.25879511     0.11900
H1739       H  0.75269827  0.09065442  0.30722375     0.08500
H1740       H  0.75630731  0.08587282  0.23641541     0.11300
C1741       C  0.70368007  0.89187487  0.06255518    -0.03300
C1742       C  0.69375949  0.88050696  0.04747584    -0.05900
C1743       C  0.69420252  0.86946963  0.05020950    -0.21000
C1744       C  0.70455856  0.86941545  0.06808945     0.24700
C1745       C  0.71461067  0.88083873  0.08301948    -0.18600
C1746       C  0.71417435  0.89197965  0.08009393    -0.08500
C1747       C  0.70407470  0.85711215  0.07085484    -0.18800
C1748       C  0.71349659  0.85534013  0.08354016    -0.23600
C1749       C  0.71218543  0.84264518  0.08449819     0.26800
C1750       C  0.72282231  0.84142866  0.07929649    -0.20400
C1751       C  0.72172387  0.82954450  0.07826194    -0.10000
C1752       C  0.70995526  0.81866513  0.08275504    -0.10600
C1753       C  0.69940186  0.81991317  0.08932271    -0.03500
C1754       C  0.70049623  0.83172848  0.09049749    -0.18600
H1755       H  0.68554969  0.88010041  0.03366737     0.10500
H1756       H  0.68631678  0.86087528  0.03842587     0.10500
H1757       H  0.72273258  0.88126044  0.09740559     0.10200
H1758       H  0.72194012  0.90061870  0.09207838     0.11300
H1759       H  0.69541529  0.84901217  0.06036777     0.11400
H1760       H  0.72257388  0.86330459  0.09130123     0.13300
H1761       H  0.73195897  0.84967885  0.07512275     0.09800
H1762       H  0.73002787  0.82885999  0.07334553     0.11900
H1763       H  0.69022788  0.81171326  0.09349443     0.08500
H1764       H  0.69214718  0.83223453  0.09640338     0.11300
C1765       C  0.68462036  0.91839363  0.93743828    -0.03300
C1766       C  0.69223832  0.92021794  0.90272929    -0.05900
C1767       C  0.68741037  0.91871911  0.86238706    -0.21000
C1768       C  0.67483983  0.91524986  0.85574345     0.24700
C1769       C  0.66721452  0.91353006  0.89060217    -0.18600
C1770       C  0.67207068  0.91505311  0.93104101    -0.08500
C1771       C  0.67020804  0.91363421  0.81202127    -0.18800
C1772       C  0.65800949  0.90704973  0.80131841    -0.23600
C1773       C  0.65345349  0.90445070  0.75745421     0.26800
C1774       C  0.64137976  0.89433429  0.74981907    -0.20400
C1775       C  0.63673929  0.89120533  0.70922815    -0.10000
C1776       C  0.64403766  0.89819416  0.67523932    -0.10600
C1777       C  0.65602356  0.90850606  0.68266595    -0.03500
C1778       C  0.66069288  0.91165345  0.72341876    -0.18600
H1779       H  0.70196852  0.92284657  0.90673043     0.10500
H1780       H  0.69351688  0.92017731  0.83621563     0.10500
H1781       H  0.65757874  0.91120596  0.88704925     0.10200
H1782       H  0.66601826  0.91366180  0.95729920     0.11300
H1783       H  0.67724669  0.91730196  0.78775337     0.11400
H1784       H  0.65101616  0.90251815  0.82541659     0.13300
H1785       H  0.63555790  0.88869492  0.77536161     0.09800
H1786       H  0.62742285  0.88325196  0.70446830     0.11900
H1787       H  0.66178435  0.91412445  0.65700196     0.08500
H1788       H  0.66988313  0.91977545  0.72792466     0.11300
C1789       C  0.64683818  0.90003605  0.44189671    -0.03300
C1790       C  0.65979279  0.90838972  0.43956752    -0.05900
C1791       C  0.66573823  0.91213818  0.40086236    -0.21000
C1792       C  0.65892925  0.90761656  0.36345202     0.24700
C1793       C  0.64590111  0.89926377  0.36590147    -0.18600
C1794       C  0.63995559  0.89556030  0.40467832    -0.08500
C1795       C  0.66595630  0.91168029  0.32321882    -0.18800
C1796       C  0.66075719  0.90828135  0.28483882    -0.23600
C1797       C  0.66815942  0.91208042  0.24541765     0.26800
C1798       C  0.66206253  0.91155018  0.20774323    -0.20400
C1799       C  0.66851361  0.91446151  0.16981239    -0.10000
C1800       C  0.68121040  0.91788025  0.16867022    -0.10600
C1801       C  0.68735294  0.91849916  0.20626519    -0.03500
C1802       C  0.68091368  0.91558272  0.24416838    -0.18600
H1803       H  0.66535988  0.91199554  0.46770090     0.10500
H1804       H  0.67576147  0.91854623  0.40020299     0.10500
H1805       H  0.64018193  0.89541253  0.33833464     0.10200
H1806       H  0.62995398  0.88907035  0.40551597     0.11300
H1807       H  0.67599931  0.91790287  0.32571286     0.11400
H1808       H  0.65068432  0.90266180  0.28146213     0.13300
H1809       H  0.65223594  0.90879310  0.20762165     0.09800
H1810       H  0.66351063  0.91385086  0.14131257     0.11900
H1811       H  0.69710251  0.92098120  0.20631397     0.08500
H1812       H  0.68591175  0.91572905  0.27206806     0.11300
C1813       C  0.72421854  0.96127635  0.04059996    -0.03300
C1814       C  0.72050527  0.96988326  0.05222132    -0.05900
C1815       C  0.72715152  0.98228194  0.03842317    -0.21000
C1816       C  0.73762907  0.98639650  0.01243962     0.24700
C1817       C  0.74172701  0.97792074  0.00242434    -0.18600
C1818       C  0.73510372  0.96549478  0.01661073    -0.08500
C1819       C  0.74324488  0.99924246  0.99447595    -0.18800
C1820       C  0.75390227  0.00507421  0.97206166    -0.23600
C1821       C  0.75852355  0.01778211  0.95424210     0.26800
C1822       C  0.77145496  0.02630634  0.95201490    -0.20400
C1823       C  0.77591700  0.03864073  0.93845523    -0.10000
C1824       C  0.76749438  0.04257407  0.92630519    -0.10600
C1825       C  0.75460296  0.03381164  0.92619272    -0.03500
C1826       C  0.75016316  0.02155646  0.93987489    -0.18600
H1827       H  0.71217720  0.96691602  0.07081197     0.10500
H1828       H  0.72380004  0.98857741  0.04692585     0.10500
H1829       H  0.74967999  0.98060265  0.98234108     0.10200
H1830       H  0.73812378  0.95902369  0.00698682     0.11300
H1831       H  0.73824095  0.00423275  0.00031309     0.11400
H1832       H  0.75972428  0.00088221  0.96837255     0.13300
H1833       H  0.77808708  0.02355652  0.96227307     0.09800
H1834       H  0.78590969  0.04518429  0.93867132     0.11900
H1835       H  0.74788950  0.03651182  0.91646272     0.08500
H1836       H  0.74016031  0.01508165  0.93954965     0.11300
C1837       C  0.29002388  0.10469174  0.87945532    -0.03300
C1838       C  0.27835930  0.10385921  0.88498962    -0.05900
C1839       C  0.27741172  0.11470647  0.88436348    -0.21000
C1840       C  0.28809102  0.12654763  0.87833845     0.24700
C1841       C  0.29966714  0.12726145  0.87119459    -0.18600
C1842       C  0.30061998  0.11647332  0.87212290    -0.08500
C1843       C  0.28684823  0.13792889  0.87919215    -0.18800
C1844       C  0.29644326  0.14936146  0.88950858    -0.23600
C1845       C  0.29578718  0.16107030  0.89057570     0.26800
C1846       C  0.30710753  0.17253709  0.89230133    -0.20400
C1847       C  0.30716755  0.18385787  0.89381765    -0.10000
C1848       C  0.29588271  0.18401085  0.89378925    -0.10600
C1849       C  0.28450682  0.17258046  0.89242437    -0.03500
C1850       C  0.28443570  0.16119333  0.89092550    -0.18600
H1851       H  0.27003916  0.09487744  0.89061659     0.10500
H1852       H  0.26835936  0.11387789  0.88941021     0.10500
H1853       H  0.30802329  0.13609525  0.86452706     0.10200
H1854       H  0.30970057  0.11736596  0.86709563     0.11300
H1855       H  0.27771021  0.13667918  0.87202339     0.11400
H1856       H  0.30542370  0.15033349  0.89761639     0.13300
H1857       H  0.31598646  0.17275514  0.89230006     0.09800
H1858       H  0.31609303  0.19251870  0.89494289     0.11900
H1859       H  0.27567328  0.17244250  0.89270746     0.08500
H1860       H  0.27548562  0.15260272  0.89068235     0.11300
C1861       C  0.11017833  0.81220802  0.05712436    -0.03300
C1862       C  0.12076416  0.81420969  0.03473114    -0.05900
C1863       C  0.13187862  0.82571647  0.03677989    -0.21000
C1864       C  0.13277398  0.83553677  0.06142690     0.24700
C1865       C  0.12213541  0.83358753  0.08383153    -0.18600
C1866       C  0.11090343  0.82202745  0.08142055    -0.08500
C1867       C  0.14520247  0.84724551  0.06407401    -0.18800
C1868       C  0.14743627  0.85816574  0.08125488    -0.23600
C1869       C  0.16032835  0.86925889  0.08407102     0.26800
C1870       C  0.16207317  0.88142678  0.08465654    -0.20400
C1871       C  0.17417799  0.89196021  0.08618733    -0.10000
C1872       C  0.18473301  0.89047395  0.08739296    -0.10600
C1873       C  0.18295022  0.87831611  0.08818056    -0.03500
C1874       C  0.17092666  0.86785104  0.08687491    -0.18600
H1875       H  0.12047566  0.80683069  0.01561425     0.10500
H1876       H  0.13988774  0.82689089  0.01928301     0.10500
H1877       H  0.12246343  0.84078806  0.10386728     0.10200
H1878       H  0.10289059  0.82066750  0.09927913     0.11300
H1879       H  0.15297856  0.84683173  0.05010446     0.11400
H1880       H  0.13972816  0.85923441  0.09217601     0.13300
H1881       H  0.15407328  0.88278136  0.08312018     0.09800
H1882       H  0.17528736  0.90123822  0.08566830     0.11900
H1883       H  0.19089205  0.87686711  0.08968267     0.08500
H1884       H  0.17000877  0.85867205  0.08844130     0.11300
C1885       C  0.27058935  0.03654532  0.91826986    -0.03300
C1886       C  0.25798328  0.03218339  0.92822011    -0.05900
C1887       C  0.25060090  0.02031776  0.94623185    -0.21000
C1888       C  0.25569477  0.01263138  0.95502513     0.24700
C1889       C  0.26811707  0.01675397  0.94287369    -0.18600
C1890       C  0.27547237  0.02857811  0.92491803    -0.08500
C1891       C  0.24788787  0.00036698  0.97654950    -0.18800
C1892       C  0.25296538  0.99521565  0.00129437    -0.23600
C1893       C  0.24601594  0.98274456  0.02237273     0.26800
C1894       C  0.25297708  0.97900793  0.04708503    -0.20400
C1895       C  0.24743957  0.96696840  0.06402785    -0.10000
C1896       C  0.23472468  0.95832091  0.05701737    -0.10600
C1897       C  0.22750674  0.96219651  0.03435509    -0.03500
C1898       C  0.23308739  0.97427190  0.01701045    -0.18600
H1899       H  0.25394871  0.03810288  0.92337908     0.10500
H1900       H  0.24100644  0.01730501  0.95456806     0.10500
H1901       H  0.27223240  0.01090097  0.94732398     0.10200
H1902       H  0.28510811  0.03160574  0.91713650     0.11300
H1903       H  0.23781484  0.99584765  0.97288210     0.11400
H1904       H  0.26301950  0.00045652  0.00647018     0.13300
H1905       H  0.26290655  0.98529813  0.05214827     0.09800
H1906       H  0.25324310  0.96428312  0.08145196     0.11900
H1907       H  0.21767914  0.95569664  0.02832715     0.08500
H1908       H  0.22729759  0.97668018  0.99843826     0.11300
C1909       C  0.37168618  0.22700467  0.41087539    -0.03300
C1910       C  0.38337044  0.22801835  0.40378069    -0.05900
C1911       C  0.38461378  0.21733541  0.40504618    -0.21000
C1912       C  0.37422450  0.20545120  0.41339644     0.24700
C1913       C  0.36263148  0.20458436  0.42191349    -0.18600
C1914       C  0.36137789  0.21520343  0.42025003    -0.08500
C1915       C  0.37582879  0.19423433  0.41328926    -0.18800
C1916       C  0.36619121  0.18245279  0.40745001    -0.23600
C1917       C  0.36712204  0.17085962  0.40598538     0.26800
C1918       C  0.35590446  0.15934860  0.40229446    -0.20400
C1919       C  0.35596857  0.14810862  0.39982053    -0.10000
C1920       C  0.36727685  0.14801278  0.40095201    -0.10600
C1921       C  0.37857550  0.15946895  0.40475692    -0.03500
C1922       C  0.37852360  0.17081208  0.40727182    -0.18600
H1923       H  0.39148152  0.23701477  0.39655453     0.10500
H1924       H  0.39368170  0.21832751  0.39882453     0.10500
H1925       H  0.35448061  0.19578705  0.43033610     0.10200
H1926       H  0.35228901  0.21416577  0.42646004     0.11300
H1927       H  0.38527709  0.19590942  0.41664460     0.11400
H1928       H  0.35690187  0.18107741  0.40239328     0.13300
H1929       H  0.34697635  0.15902104  0.40118960     0.09800
H1930       H  0.34709201  0.13944949  0.39691919     0.11900
H1931       H  0.38743343  0.15966054  0.40565178     0.08500
H1932       H  0.38741902  0.17940949  0.40982057     0.11300
C1933       C  0.35116126  0.10141518  0.51173697    -0.03300
C1934       C  0.35916772  0.10543885  0.54659197    -0.05900
C1935       C  0.35430223  0.10209991  0.58692107    -0.21000
C1936       C  0.34133291  0.09465463  0.59347353     0.24700
C1937       C  0.33330985  0.09068623  0.55844643    -0.18600
C1938       C  0.33819344  0.09398370  0.51808787    -0.08500
C1939       C  0.33662980  0.09179831  0.63726473    -0.18800
C1940       C  0.32506580  0.08255171  0.64805591    -0.23600
C1941       C  0.32019540  0.08021286  0.69166561     0.26800
C1942       C  0.30716878  0.07368101  0.69772605    -0.20400
C1943       C  0.30210948  0.07176957  0.73785242    -0.10000
C1944       C  0.30996143  0.07619916  0.77306336    -0.10600
C1945       C  0.32299417  0.08228728  0.76727040    -0.03500
C1946       C  0.32807266  0.08426922  0.72705413    -0.18600
H1947       H  0.36920431  0.11123376  0.54271177     0.10500
H1948       H  0.36071586  0.10539328  0.61318343     0.10500
H1949       H  0.32325175  0.08530470  0.56182764     0.10200
H1950       H  0.33178346  0.09091086  0.49183645     0.11300
H1951       H  0.34304870  0.09771995  0.66142295     0.11400
H1952       H  0.31861378  0.07663141  0.62398062     0.13300
H1953       H  0.30085662  0.07029819  0.67120217     0.09800
H1954       H  0.29202641  0.06696700  0.74127132     0.11900
H1955       H  0.32928293  0.08571300  0.79382939     0.08500
H1956       H  0.33814289  0.08893472  0.72403501     0.11300
C1957       C  0.30948763  0.08146585  0.01027203    -0.03300
C1958       C  0.30205802  0.08143982  0.04340311    -0.05900
C1959       C  0.30656704  0.08343724  0.08437489    -0.21000
C1960       C  0.31864762  0.08564392  0.09323696     0.24700
C1961       C  0.32606390  0.08556854  0.06003987    -0.18600
C1962       C  0.32152862  0.08354028  0.01899274    -0.08500
C1963       C  0.32301233  0.08776108  0.13745930    -0.18800
C1964       C  0.33520314  0.09400612  0.14867485    -0.23600
C1965       C  0.33983118  0.09691635  0.19261052     0.26800
C1966       C  0.35249773  0.10584873  0.19936304    -0.20400
C1967       C  0.35738256  0.10907169  0.23973436    -0.10000
C1968       C  0.34973999  0.10336079  0.27452377    -0.10600
C1969       C  0.33710352  0.09429031  0.26805632    -0.03500
C1970       C  0.33218046  0.09107028  0.22754671    -0.18600
H1971       H  0.29270570  0.07980538  0.03770203     0.10500
H1972       H  0.30061256  0.08334884  0.10925223     0.10500
H1973       H  0.33526868  0.08683281  0.06554975     0.10200
H1974       H  0.32740453  0.08348121  0.99411470     0.11300
H1975       H  0.31585277  0.08472458  0.16121522     0.11400
H1976       H  0.34226055  0.09783640  0.12446061     0.13300
H1977       H  0.35865686  0.11044523  0.17322898     0.09800
H1978       H  0.36718649  0.11603933  0.24368764     0.11900
H1979       H  0.33102023  0.08968271  0.29432669     0.08500
H1980       H  0.32245582  0.08391482  0.22404769     0.11300
C1981       C  0.55509661  0.03430178  0.22184745    -0.03300
C1982       C  0.54327763  0.02341195  0.21932698    -0.05900
C1983       C  0.53239281  0.02417510  0.21889569    -0.21000
C1984       C  0.53298891  0.03581250  0.22151516     0.24700
C1985       C  0.54484020  0.04678973  0.22360176    -0.18600
C1986       C  0.55580073  0.04601969  0.22363809    -0.08500
C1987       C  0.52094002  0.03580292  0.22193788    -0.18800
C1988       C  0.51944773  0.04530882  0.23556680    -0.23600
C1989       C  0.50683038  0.04400220  0.23952286     0.26800
C1990       C  0.50549715  0.05462694  0.23628074    -0.20400
C1991       C  0.49366841  0.05353268  0.23998482    -0.10000
C1992       C  0.48299648  0.04179261  0.24743528    -0.10600
C1993       C  0.48439470  0.03124260  0.25162046    -0.03500
C1994       C  0.49614638  0.03232923  0.24799352    -0.18600
H1995       H  0.54242248  0.01424718  0.21776544     0.10500
H1996       H  0.52342208  0.01557203  0.21711526     0.10500
H1997       H  0.54573369  0.05595625  0.22483290     0.10200
H1998       H  0.56480881  0.05456627  0.22549652     0.11300
H1999       H  0.51272180  0.02717130  0.21190398     0.11400
H2000       H  0.52751383  0.05419120  0.24450983     0.13300
H2001       H  0.51359937  0.06375636  0.23041560     0.09800
H2002       H  0.49286532  0.06183602  0.23691321     0.11900
H2003       H  0.47637913  0.02209574  0.25798342     0.08500
H2004       H  0.49681659  0.02400764  0.25263617     0.11300
C2005       C  0.39061385  0.10141202  0.37316731    -0.03300
C2006       C  0.40332564  0.10994444  0.36542310    -0.05900
C2007       C  0.41142651  0.10566478  0.35325542    -0.21000
C2008       C  0.40695613  0.09279495  0.34807306     0.24700
C2009       C  0.39431985  0.08424769  0.35738154    -0.18600
C2010       C  0.38625101  0.08851489  0.36962004    -0.08500
C2011       C  0.41563495  0.08848333  0.33353252    -0.18800
C2012       C  0.41154312  0.07793567  0.31072591    -0.23600
C2013       C  0.41922806  0.07236626  0.29688469     0.26800
C2014       C  0.41290877  0.06068950  0.27669272    -0.20400
C2015       C  0.41915894  0.05437373  0.26545379    -0.10000
C2016       C  0.43198281  0.05957700  0.27376098    -0.10600
C2017       C  0.43855209  0.07150772  0.29242130    -0.03500
C2018       C  0.43223140  0.07785820  0.30405771    -0.18600
H2019       H  0.40695932  0.11993922  0.36801387     0.10500
H2020       H  0.42114096  0.11243730  0.34687783     0.10500
H2021       H  0.39062451  0.07423808  0.35544636     0.10200
H2022       H  0.37653315  0.08169898  0.37576233     0.11300
H2023       H  0.42549213  0.09428980  0.34103464     0.11400
H2024       H  0.40171565  0.07280352  0.30188538     0.13300
H2025       H  0.40294512  0.05622115  0.27047696     0.09800
H2026       H  0.41383487  0.04522047  0.25100243     0.11900
H2027       H  0.44845315  0.07572164  0.29928345     0.08500
H2028       H  0.43753655  0.08687795  0.31916707     0.11300
C2029       C  0.51841717  0.96259283  0.74580828    -0.03300
C2030       C  0.51863947  0.97407371  0.74643058    -0.05900
C2031       C  0.50752769  0.97438204  0.74756198    -0.21000
C2032       C  0.49592068  0.96324701  0.74872032     0.24700
C2033       C  0.49562576  0.95169064  0.74822391    -0.18600
C2034       C  0.50681262  0.95138157  0.74673915    -0.08500
C2035       C  0.48446970  0.96427084  0.74927577    -0.18800
C2036       C  0.47341482  0.95552590  0.76521293    -0.23600
C2037       C  0.46243445  0.95737101  0.76738948     0.26800
C2038       C  0.45028862  0.94688458  0.76679635    -0.20400
C2039       C  0.43978989  0.94840439  0.76740441    -0.10000
C2040       C  0.44129734  0.96045649  0.76905872    -0.10600
C2041       C  0.45343505  0.97091052  0.77122287    -0.03500
C2042       C  0.46388214  0.96940107  0.77064706    -0.18600
H2043       H  0.52743027  0.98287289  0.74545578     0.10500
H2044       H  0.50800985  0.98339381  0.74769177     0.10500
H2045       H  0.48682859  0.94291360  0.74798080     0.10200
H2046       H  0.50638558  0.94240528  0.74577142     0.11300
H2047       H  0.48541527  0.97291019  0.73714607     0.11400
H2048       H  0.47227633  0.94675218  0.77674279     0.13300
H2049       H  0.44892998  0.93751758  0.76491942     0.09800
H2050       H  0.43052352  0.94018580  0.76586294     0.11900
H2051       H  0.45488176  0.98031293  0.77302446     0.08500
H2052       H  0.47305233  0.97769726  0.77309798     0.11300
C2053       C  0.42084260  0.98306421  0.64146173    -0.03300
C2054       C  0.42120322  0.97603462  0.60759811    -0.05900
C2055       C  0.42351615  0.98097273  0.56733896    -0.21000
C2056       C  0.42560043  0.99307375  0.55989773     0.24700
C2057       C  0.42537426  0.00019502  0.59392411    -0.18600
C2058       C  0.42305244  0.99523072  0.63432625    -0.08500
C2059       C  0.42743940  0.99759185  0.51605883    -0.18800
C2060       C  0.43263841  0.00973147  0.50520161    -0.23600
C2061       C  0.43475869  0.01398651  0.46111084     0.26800
C2062       C  0.44461767  0.02606756  0.45211056    -0.20400
C2063       C  0.44705034  0.03039467  0.41107556    -0.10000
C2064       C  0.43958261  0.02276909  0.37809860    -0.10600
C2065       C  0.42954837  0.01075374  0.38702372    -0.03500
C2066       C  0.42712009  0.00640321  0.42817118    -0.18600
H2067       H  0.41953177  0.96661977  0.61211004     0.10500
H2068       H  0.42359784  0.97526283  0.54181012     0.10500
H2069       H  0.42663259  0.00944052  0.58955101     0.10200
H2070       H  0.42275935  0.00082140  0.65985355     0.11300
H2071       H  0.42491058  0.99059672  0.49171975     0.11400
H2072       H  0.43625972  0.01692632  0.52915389     0.13300
H2073       H  0.45056724  0.03212970  0.47688847     0.09800
H2074       H  0.45481761  0.03972986  0.40516834     0.11900
H2075       H  0.42354414  0.00475311  0.36225051     0.08500
H2076       H  0.41917123  0.99719293  0.43406398     0.11300
C2077       C  0.41235557  0.98004384  0.87730463    -0.03300
C2078       C  0.40816568  0.97183290  0.91149494    -0.05900
C2079       C  0.40967735  0.97647208  0.95226122    -0.21000
C2080       C  0.41550927  0.98942164  0.95991197     0.24700
C2081       C  0.41929312  0.99761507  0.92550398    -0.18600
C2082       C  0.41775920  0.99296635  0.88472375    -0.08500
C2083       C  0.41736329  0.99395882  0.00401057    -0.18800
C2084       C  0.42632611  0.00558405  0.01574323    -0.23600
C2085       C  0.42886262  0.01050830  0.05947245     0.26800
C2086       C  0.43812013  0.02311031  0.06558450    -0.20400
C2087       C  0.44126640  0.02829614  0.10556087    -0.10000
C2088       C  0.43527455  0.02101322  0.14077413    -0.10600
C2089       C  0.42589860  0.00842747  0.13503294    -0.03500
C2090       C  0.42269732  0.00320678  0.09482314    -0.18600
H2091       H  0.40389662  0.96181525  0.90678993     0.10500
H2092       H  0.40651736  0.96992007  0.97800652     0.10500
H2093       H  0.42337251  0.00761305  0.92973762     0.10200
H2094       H  0.42095646  0.99951602  0.85898797     0.11300
H2095       H  0.41144127  0.98725400  0.02729017     0.11400
H2096       H  0.43247061  0.01194234  0.99201330     0.13300
H2097       H  0.44304621  0.02900457  0.03921216     0.09800
H2098       H  0.44854334  0.03801738  0.10888876     0.11900
H2099       H  0.42112847  0.00258213  0.16165140     0.08500
H2100       H  0.41554023  0.99346271  0.09201689     0.11300
C2101       C  0.22477466  0.84985366  0.57410813    -0.03300
C2102       C  0.21407823  0.84792105  0.59557289    -0.05900
C2103       C  0.20308538  0.83631852  0.59438391    -0.21000
C2104       C  0.20236712  0.82630078  0.57138281     0.24700
C2105       C  0.21312210  0.82815376  0.54991086    -0.18600
C2106       C  0.22426280  0.83984296  0.55149499    -0.08500
C2107       C  0.19002130  0.81443995  0.57029861    -0.18800
C2108       C  0.18726040  0.80392498  0.54898920    -0.23600
C2109       C  0.17426887  0.79294194  0.54786346     0.26800
C2110       C  0.17228748  0.78073443  0.54377972    -0.20400
C2111       C  0.16009192  0.77031865  0.54380532    -0.10000
C2112       C  0.14967858  0.77197333  0.54751596    -0.10600
C2113       C  0.15167603  0.78419455  0.55036662    -0.03500
C2114       C  0.16378038  0.79453754  0.55021480    -0.18600
H2115       H  0.21418627  0.85542359  0.61344696     0.10500
H2116       H  0.19501318  0.83523337  0.61125030     0.10500
H2117       H  0.21301552  0.82073735  0.53168835     0.10200
H2118       H  0.23238919  0.84111386  0.53455899     0.11300
H2119       H  0.18261838  0.81446101  0.58839520     0.11400
H2120       H  0.19452283  0.80314114  0.53279815     0.13300
H2121       H  0.18018909  0.77925061  0.54132242     0.09800
H2122       H  0.15881394  0.76099540  0.54132871     0.11900
H2123       H  0.14384381  0.78579407  0.55263375     0.08500
H2124       H  0.16485410  0.80378815  0.55150943     0.11300
C2125       C  0.37414760  0.94401232  0.72583617    -0.03300
C2126       C  0.36688059  0.94973589  0.72107635    -0.05900
C2127       C  0.35479766  0.94307913  0.70462816    -0.21000
C2128       C  0.34958720  0.93050706  0.69230408     0.24700
C2129       C  0.35674272  0.92460796  0.69795200    -0.18600
C2130       C  0.36892565  0.93132814  0.71462988    -0.08500
C2131       C  0.33686137  0.92435696  0.67289474    -0.18800
C2132       C  0.33050851  0.91258635  0.65741030    -0.23600
C2133       C  0.31796869  0.90751042  0.63715359     0.26800
C2134       C  0.30937508  0.89456129  0.63806796    -0.20400
C2135       C  0.29726413  0.88970636  0.62156238    -0.10000
C2136       C  0.29355998  0.89772314  0.60357333    -0.10600
C2137       C  0.30235736  0.91056810  0.60071980    -0.03500
C2138       C  0.31443241  0.91539482  0.61695487    -0.18600
H2139       H  0.37062556  0.95949503  0.72932405     0.10500
H2140       H  0.34956737  0.94790338  0.70081569     0.10500
H2141       H  0.35313542  0.91493925  0.68913050     0.10200
H2142       H  0.37435042  0.92669349  0.71788855     0.11300
H2143       H  0.33244491  0.93004110  0.67139313     0.11400
H2144       H  0.33424028  0.90634623  0.66063756     0.13300
H2145       H  0.31189960  0.88824279  0.65279672     0.09800
H2146       H  0.29067258  0.87975569  0.62419283     0.11900
H2147       H  0.29982458  0.91696526  0.58666327     0.08500
H2148       H  0.32093094  0.92533247  0.61370172     0.11300
C2149       C  0.25154004  0.89548440  0.69932727    -0.03300
C2150       C  0.25259591  0.88896524  0.73349616    -0.05900
C2151       C  0.25081056  0.89184851  0.77405824    -0.21000
C2152       C  0.24783087  0.90124197  0.78152551     0.24700
C2153       C  0.24704507  0.90799679  0.74734423    -0.18600
C2154       C  0.24886051  0.90511059  0.70662094    -0.08500
C2155       C  0.24575498  0.90368183  0.82539610    -0.18800
C2156       C  0.23911627  0.90918540  0.83608916    -0.23600
C2157       C  0.23625726  0.91078818  0.87996883     0.26800
C2158       C  0.22617812  0.91274455  0.88726473    -0.20400
C2159       C  0.22308049  0.91431915  0.92775275    -0.10000
C2160       C  0.23004703  0.91405157  0.96200572    -0.10600
C2161       C  0.24019334  0.91217272  0.95495889    -0.03500
C2162       C  0.24332370  0.91061442  0.91432513    -0.18600
H2163       H  0.25473851  0.88155298  0.72889147     0.10500
H2164       H  0.25159150  0.88657715  0.79972311     0.10500
H2165       H  0.24517128  0.91558227  0.75177605     0.10200
H2166       H  0.24812859  0.91037556  0.68085976     0.11300
H2167       H  0.24910705  0.89996184  0.84962024     0.11400
H2168       H  0.23485699  0.91193368  0.81179307     0.13300
H2169       H  0.22062047  0.91300003  0.86149611     0.09800
H2170       H  0.21523526  0.91580461  0.93220540     0.11900
H2171       H  0.24580381  0.91206682  0.98079821     0.08500
H2172       H  0.25139833  0.90951953  0.91012804     0.11300
C2173       C  0.25154925  0.89871974  0.46675396    -0.03300
C2174       C  0.24968167  0.90902607  0.46487861    -0.05900
C2175       C  0.24721750  0.91287581  0.42673718    -0.21000
C2176       C  0.24654910  0.90652484  0.38959009     0.24700
C2177       C  0.24836629  0.89614206  0.39155606    -0.18600
C2178       C  0.25092190  0.89235226  0.42969751    -0.08500
C2179       C  0.24331170  0.91063280  0.35005542    -0.18800
C2180       C  0.24566797  0.90782264  0.31170644    -0.23600
C2181       C  0.24199929  0.91148906  0.27209832     0.26800
C2182       C  0.24781216  0.91121072  0.23485619    -0.20400
C2183       C  0.24411452  0.91376478  0.19654824    -0.10000
C2184       C  0.23446126  0.91662124  0.19455633    -0.10600
C2185       C  0.22875568  0.91710382  0.23177176    -0.03500
C2186       C  0.23242746  0.91451783  0.27010924    -0.18600
H2187       H  0.25006643  0.91408436  0.49296159     0.10500
H2188       H  0.24576317  0.92082855  0.42628898     0.10500
H2189       H  0.24751756  0.89069872  0.36405043     0.10200
H2190       H  0.25212632  0.88424815  0.43032529     0.11300
H2191       H  0.23916794  0.91652986  0.35301641     0.11400
H2192       H  0.25080532  0.90286696  0.30880671     0.13300
H2193       H  0.25515968  0.90885622  0.23532853     0.09800
H2194       H  0.24868252  0.91330628  0.16839355     0.11900
H2195       H  0.22121237  0.91917164  0.23115834     0.08500
H2196       H  0.22743965  0.91451475  0.29772897     0.11300
loop_ 
_geom_bond_atom_site_label_1 
_geom_bond_atom_site_label_2 
_geom_bond_distance 
_geom_bond_site_symmetry_2 
_ccdc_geom_bond_type 
In1           O3   2.224       .  S
In1           O4   2.275       .  S
In1          O12   2.251       .  S
In1           O6   2.251       .  S
In1           O8   2.260       .  S
In1           O9   2.262       .  S
In1          O10   2.230       .  S
In1          O13   2.239       .  S
C2            O8   1.265       .  A
C2           O10   1.261       .  A
C2         C2149   1.479       .  S
O3           C11   1.259       .  A
O4           C11   1.264       .  A
C5           O12   1.262       .  A
C5            O6   1.262       .  A
C5         C2173   1.481       .  S
C7            O9   1.263       .  A
C7           O13   1.261       .  A
C7         C2136   1.482       .  S
C11        C2101   1.480       .  S
In14         O16   2.221       .  S
In14         O17   2.256       .  S
In14         O25   2.249       .  S
In14         O19   2.255       .  S
In14         O21   2.261       .  S
In14         O22   2.264       .  S
In14         O23   2.230       .  S
In14         O26   2.224       .  S
C15          O21   1.265       .  A
C15          O23   1.260       .  A
C15        C2053   1.479       .  S
O16          C24   1.261       .  A
O17          C24   1.265       .  A
C18          O25   1.263       .  A
C18          O19   1.264       .  A
C18        C2077   1.484       .  S
C20          O22   1.265       .  A
C20          O26   1.261       .  A
C20        C2125   1.481       .  S
C24        C2040   1.476       .  S
In27         O29   2.223       .  S
In27         O30   2.262       .  S
In27         O38   2.234       .  S
In27         O32   2.262       .  S
In27         O34   2.259       .  S
In27         O35   2.275       .  S
In27         O36   2.228       .  S
In27         O39   2.223       .  S
C28          O34   1.265       .  A
C28          O36   1.260       .  A
C28        C2064   1.478       .  S
O29          C37   1.261       .  A
O30          C37   1.266       .  A
C31          O38   1.263       .  A
C31          O32   1.265       .  A
C31        C2088   1.484       .  S
C33          O35   1.265       .  A
C33          O39   1.260       .  A
C33        C2016   1.482       .  S
C37        C1992   1.480       .  S
In40         O42   2.221       .  S
In40         O43   2.273       .  S
In40         O51   2.248       .  S
In40         O45   2.252       .  S
In40         O47   2.260       .  S
In40         O48   2.256       .  S
In40         O49   2.235       .  S
In40         O52   2.239       .  S
C41          O47   1.265       .  A
C41          O49   1.261       .  A
C41        C1968   1.481       .  S
O42          C50   1.260       .  A
O43          C50   1.266       .  A
C44          O51   1.262       .  A
C44          O45   1.264       .  A
C44        C1933   1.483       .  S
C46          O48   1.265       .  A
C46          O52   1.262       .  A
C46        C2005   1.483       .  S
C50        C1920   1.481       .  S
In53         O55   2.230       .  S
In53         O56   2.266       .  S
In53         O64   2.253       .  S
In53         O58   2.249       .  S
In53         O60   2.264       .  S
In53         O61   2.266       .  S
In53         O62   2.233       .  S
In53         O65   2.245       .  S
C54          O60   1.263       .  A
C54          O62   1.258       .  A
C54        C2160   1.478   1_554  S
O55          C63   1.260       .  A
O56          C63   1.264       .  A
C57          O64   1.264       .  A
C57          O58   1.263       .  A
C57        C2184   1.483       .  S
C59          O61   1.262       .  A
C59          O65   1.260       .  A
C59        C1896   1.483       .  S
C63        C1872   1.480       .  S
In66         O68   2.224       .  S
In66         O69   2.261       .  S
In66         O77   2.250       .  S
In66         O71   2.263       .  S
In66         O73   2.260       .  S
In66         O74   2.261       .  S
In66         O75   2.235       .  S
In66         O78   2.240       .  S
C67          O73   1.266       .  A
C67          O75   1.260       .  A
C67        C1957   1.481   1_556  S
O68          C76   1.260       .  A
O69          C76   1.265       .  A
C70          O77   1.262       .  A
C70          O71   1.264       .  A
C70        C1944   1.486       .  S
C72          O74   1.265       .  A
C72          O78   1.262       .  A
C72        C1885   1.484       .  S
C76        C1837   1.477       .  S
In79         O81   2.239       .  S
In79         O82   2.268       .  S
In79         O90   2.247       .  S
In79         O84   2.250       .  S
In79         O86   2.251       .  S
In79         O87   2.276       .  S
In79         O88   2.235   1_554  S
In79         O91   2.223       .  S
C80          O86   1.263   1_556  A
C80          O88   1.261       .  A
C80        C1765   1.477       .  S
O81          C89   1.259       .  A
O82          C89   1.263       .  A
C83          O90   1.263       .  A
C83          O84   1.263       .  A
C83        C1800   1.482       .  S
C85          O87   1.265       .  A
C85          O91   1.259       .  A
C85        C1741   1.482       .  S
C89        C1813   1.481       .  S
In92         O94   2.232       .  S
In92         O95   2.264       .  S
In92        O103   2.250       .  S
In92         O97   2.265       .  S
In92         O99   2.265       .  S
In92        O100   2.267       .  S
In92        O101   2.238       .  S
In92        O104   2.224       .  S
C93          O99   1.265       .  A
C93         O101   1.261       .  A
C93        C1717   1.483   1_556  S
O94         C102   1.261       .  A
O95         C102   1.264       .  A
C96         O103   1.262       .  A
C96          O97   1.264       .  A
C96        C1704   1.487       .  S
C98         O100   1.265       .  A
C98         O104   1.260       .  A
C98        C1680   1.480       .  S
C102       C1824   1.481       .  S
In105       O107   2.240       .  S
In105       O108   2.263       .  S
In105       O116   2.258       .  S
In105       O110   2.262       .  S
In105       O112   2.272       .  S
In105       O113   2.265       .  S
In105       O114   2.240       .  S
In105       O117   2.232       .  S
C106        O112   1.266       .  A
C106        O114   1.260       .  A
C106       C1728   1.485       .  S
O107        C115   1.262       .  A
O108        C115   1.265       .  A
C109        O116   1.263       .  A
C109        O110   1.265       .  A
C109       C1693   1.489       .  S
C111        O113   1.265       .  A
C111        O117   1.261       .  A
C111       C1621   1.481       .  S
C115       C1645   1.484       .  S
In118       O120   2.235       .  S
In118       O121   2.270       .  S
In118       O129   2.244       .  S
In118       O123   2.253       .  S
In118       O125   2.259       .  S
In118       O126   2.261       .  S
In118       O127   2.230       .  S
In118       O130   2.228       .  S
C119        O125   1.263       .  A
C119        O127   1.259       .  A
C119       C1573   1.476       .  S
O120        C128   1.259       .  A
O121        C128   1.263       .  A
C122        O129   1.263       .  A
C122        O123   1.263       .  A
C122       C1597   1.478       .  S
C124        O126   1.266       .  A
C124        O130   1.262       .  A
C124       C1981   1.480       .  S
C128       C1656   1.482       .  S
In131       O133   2.220       .  S
In131       O134   2.269       .  S
In131       O142   2.246       .  S
In131       O136   2.244       .  S
In131       O138   2.260       .  S
In131       O139   2.257       .  S
In131       O140   2.234       .  S
In131       O143   2.216       .  S
C132        O138   1.263       .  A
C132        O140   1.259       .  A
C132       C1584   1.473       .  S
O133        C141   1.258       .  A
O134        C141   1.264       .  A
C135        O142   1.263       .  A
C135        O136   1.263       .  A
C135       C1608   1.478       .  S
C137        O139   1.267       .  A
C137        O143   1.262       .  A
C137       C2029   1.477       .  S
C141       C1549   1.478       .  S
In144       O146   2.227       .  S
In144       O147   2.262       .  S
In144       O155   2.251       .  S
In144       O149   2.253       .  S
In144       O151   2.257       .  S
In144       O152   2.258       .  S
In144       O153   2.225       .  S
In144       O156   2.219       .  S
C145        O151   1.264       .  A
C145        O153   1.260       .  A
C145       C1776   1.476       .  S
O146        C154   1.260       .  A
O147        C154   1.263       .  A
C148        O155   1.262       .  A
C148        O149   1.263       .  A
C148       C1789   1.483       .  S
C150        O152   1.264       .  A
C150        O156   1.260       .  A
C150       C1525   1.475       .  S
C154       C1560   1.478       .  S
In157       O159   2.237       .  S
In157       O160   2.274       .  S
In157       O168   2.266       .  S
In157       O162   2.236       .  S
In157       O164   2.241       .  S
In157       O165   2.270       .  S
In157       O166   2.243       .  S
In157       O169   2.237       .  S
C158        O164   1.260       .  A
C158        O166   1.261       .  A
C158       C1512   1.474       .  S
O159        C167   1.259       .  A
O160        C167   1.263       .  A
C161        O168   1.263       .  A
C161        O162   1.259       .  A
C161       C1477   1.481       .  S
C163        O165   1.263       .  A
C163        O169   1.259       .  A
C163       C1453   1.483       .  S
C167       C1440   1.482       .  S
In170       O172   2.218       .  S
In170       O173   2.268       .  S
In170       O181   2.248       .  S
In170       O175   2.248       .  S
In170       O177   2.250       .  S
In170       O178   2.271       .  S
In170       O179   2.235       .  S
In170       O182   2.230       .  S
C171        O177   1.263       .  A
C171        O179   1.260       .  A
C171       C1381   1.476       .  S
O172        C180   1.259       .  A
O173        C180   1.265       .  A
C174        O181   1.264       .  A
C174        O175   1.263       .  A
C174       C1405   1.483       .  S
C176        O178   1.264       .  A
C176        O182   1.260       .  A
C176       C1464   1.480       .  S
C180       C1368   1.478       .  S
In183       O185   2.217       .  S
In183       O186   2.277       .  S
In183       O194   2.261       .  S
In183       O188   2.247       .  S
In183       O190   2.258       .  S
In183       O191   2.269       .  S
In183       O192   2.246       .  S
In183       O195   2.239       .  S
C184        O190   1.262       .  A
C184        O192   1.261       .  A
C184       C1320   1.482       .  S
O185        C193   1.258       .  A
O186        C193   1.265       .  A
C187        O194   1.263       .  A
C187        O188   1.262       .  A
C187       C1333   1.484       .  S
C189        O191   1.264       .  A
C189        O195   1.261       .  A
C189       C1285   1.485       .  S
C193       C1536   1.478       .  S
In196       O198   2.225       .  S
In196       O199   2.264       .  S
In196       O207   2.250       .  S
In196       O201   2.258       .  S
In196       O203   2.247       .  S
In196       O204   2.266       .  S
In196       O205   2.234       .  S
In196       O208   2.240       .  S
C197        O203   1.264       .  A
C197        O205   1.261       .  A
C197       C1392   1.476       .  S
O198        C206   1.260       .  A
O199        C206   1.265       .  A
C200        O207   1.262       .  A
C200        O201   1.263       .  A
C200       C1416   1.484       .  S
C202        O204   1.263       .  A
C202        O208   1.261       .  A
C202       C1296   1.482       .  S
C206       C1261   1.478       .  S
In209       O211   2.228       .  S
In209       O212   2.270       .  S
In209       O220   2.254       .  S
In209       O214   2.251       .  S
In209       O216   2.252       .  S
In209       O217   2.258       .  S
In209       O218   2.247       .  S
In209       O221   2.237       .  S
C210        O216   1.263   1_556  A
C210        O218   1.261   1_556  A
C210       C1309   1.481       .  S
O211        C219   1.260       .  A
O212        C219   1.265       .  A
C213        O220   1.263       .  A
C213        O214   1.263       .  A
C213       C1344   1.483       .  S
C215        O217   1.264       .  A
C215        O221   1.261       .  A
C215       C1248   1.480       .  S
C219       C1752   1.481       .  S
In222       O224   2.211       .  S
In222       O225   2.270       .  S
In222       O233   2.246       .  S
In222       O227   2.240       .  S
In222       O229   2.242       .  S
In222       O230   2.272       .  S
In222       O231   2.234       .  S
In222       O234   2.233       .  S
C223        O229   1.263   1_554  A
C223        O231   1.261   1_554  A
C223       C1501   1.474       .  S
O224        C232   1.259       .  A
O225        C232   1.267       .  A
C226        O233   1.264       .  A
C226        O227   1.263       .  A
C226       C1488   1.480       .  S
C228        O230   1.263       .  A
C228        O234   1.259       .  A
C228       C1237   1.480       .  S
C232       C1213   1.477       .  S
In235       O237   2.239       .  S
In235       O238   2.260       .  S
In235       O246   2.240       .  S
In235       O240   2.242       .  S
In235       O242   2.257       .  S
In235       O243   2.264       .  S
In235       O244   2.237       .  S
In235       O247   2.227       .  S
C236        O242   1.262       .  A
C236        O244   1.259       .  A
C236       C1200   1.478       .  S
O237        C245   1.259       .  A
O238        C245   1.263       .  A
C239        O246   1.264       .  A
C239        O240   1.264       .  A
C239       C1165   1.478       .  S
C241        O243   1.265       .  A
C241        O247   1.260       .  A
C241       C1909   1.480       .  S
C245       C1141   1.478       .  S
In248       O250   2.237       .  S
In248       O251   2.251       .  S
In248       O259   2.238       .  S
In248       O253   2.255       .  S
In248       O255   2.265       .  S
In248       O256   2.253       .  S
In248       O257   2.231       .  S
In248       O260   2.227       .  S
C249        O255   1.264       .  A
C249        O257   1.259       .  A
C249       C1104   1.479       .  S
O250        C258   1.262       .  A
O251        C258   1.263       .  A
C252        O259   1.262       .  A
C252        O253   1.264       .  A
C252       C1117   1.481       .  S
C254        O256   1.263       .  A
C254        O260   1.261       .  A
C254       C1357   1.476       .  S
C258       C1152   1.478       .  S
In261       O263   2.240       .  S
In261       O264   2.271       .  S
In261       O272   2.259       .  S
In261       O266   2.236       .  S
In261       O268   2.251       .  S
In261       O269   2.273       .  S
In261       O270   2.234       .  S
In261       O273   2.230       .  S
C262        O268   1.261       .  A
C262        O270   1.260       .  A
C262       C1021   1.474   1_554  S
O263        C271   1.259       .  A
O264        C271   1.262       .  A
C265        O272   1.265       .  A
C265        O266   1.262       .  A
C265       C1045   1.481       .  S
C267        O269   1.265       .  A
C267        O273   1.260       .  A
C267       C1008   1.483       .  S
C271       C1069   1.483       .  S
In274       O276   2.237       .  S
In274       O277   2.261       .  S
In274       O285   2.241       .  S
In274       O279   2.240       .  S
In274       O281   2.253       .  S
In274       O282   2.262       .  S
In274       O283   2.230       .  S
In274       O286   2.225       .  S
C275        O281   1.263       .  A
C275        O283   1.260       .  A
C275       C1189   1.476   1_556  S
O276        C284   1.260       .  A
O277        C284   1.264       .  A
C278        O285   1.263       .  A
C278        O279   1.263       .  A
C278       C1176   1.477       .  S
C280        O282   1.265       .  A
C280        O286   1.260       .  A
C280       C1848   1.478       .  S
C284       C1080   1.481       .  S
In287       O289   2.229       .  S
In287       O290   2.271       .  S
In287       O298   2.254       .  S
In287       O292   2.235       .  S
In287       O294   2.245       .  S
In287       O295   2.270       .  S
In287       O296   2.244       .  S
In287       O299   2.218       .  S
C288        O294   1.261       .  A
C288        O296   1.260       .  A
C288       C1032   1.475       .  S
O289        C297   1.258       .  A
O290        C297   1.263       .  A
C291        O298   1.265       .  A
C291        O292   1.262       .  A
C291       C1056   1.481       .  S
C293        O295   1.266       .  A
C293        O299   1.259       .  A
C293        C960   1.479       .  S
C297        C973   1.479       .  S
In300       O302   2.223       .  S
In300       O303   2.260       .  S
In300       O311   2.241       .  S
In300       O305   2.257       .  S
In300       O307   2.257       .  S
In300       O308   2.262       .  S
In300       O309   2.228       .  S
In300       O312   2.228       .  S
C301        O307   1.265       .  A
C301        O309   1.261       .  A
C301       C1093   1.479       .  S
O302        C310   1.261       .  A
O303        C310   1.265       .  A
C304        O311   1.262       .  A
C304        O305   1.264       .  A
C304       C1128   1.482       .  S
C306        O308   1.265       .  A
C306        O312   1.261       .  A
C306       C1272   1.480       .  S
C310        C984   1.479       .  S
In313       O315   2.231       .  S
In313       O316   2.273       .  S
In313       O324   2.243       .  S
In313       O318   2.254       .  S
In313       O320   2.258       .  S
In313       O321   2.254       .  S
In313       O322   2.238       .  S
In313       O325   2.231       .  S
C314        O320   1.263       .  A
C314        O322   1.258       .  A
C314        C901   1.474       .  S
O315        C323   1.259       .  A
O316        C323   1.264       .  A
C317        O324   1.264       .  A
C317        O318   1.264       .  A
C317        C936   1.483       .  S
C319        O321   1.266       .  A
C319        O325   1.262       .  A
C319        C853   1.478       .  S
C323        C888   1.481       .  S
In326       O328   2.240       .  S
In326       O329   2.266       .  S
In326       O337   2.256       .  S
In326       O331   2.253       .  S
In326       O333   2.249       .  S
In326       O334   2.271       .  S
In326       O335   2.235       .  S
In326       O338   2.223       .  S
C327        O333   1.264       .  A
C327        O335   1.261       .  A
C327        C829   1.476       .  S
O328        C336   1.259       .  A
O329        C336   1.264       .  A
C330        O337   1.262       .  A
C330        O331   1.262       .  A
C330        C805   1.484       .  S
C332        O334   1.266       .  A
C332        O338   1.261       .  A
C332       C1429   1.482       .  S
C336        C877   1.482       .  S
In339       O341   2.234       .  S
In339       O342   2.261       .  S
In339       O350   2.247       .  S
In339       O344   2.248       .  S
In339       O346   2.249       .  S
In339       O347   2.272       .  S
In339       O348   2.226   1_554  S
In339       O351   2.227       .  S
C340        O346   1.265   1_556  A
C340        O348   1.261       .  A
C340        C757   1.475       .  S
O341        C349   1.261       .  A
O342        C349   1.265       .  A
C343        O350   1.262       .  A
C343        O344   1.263       .  A
C343        C792   1.480       .  S
C345        O347   1.265       .  A
C345        O351   1.259       .  A
C345       C1861   1.479       .  S
C349        C744   1.481       .  S
In352       O354   2.221       .  S
In352       O355   2.272       .  S
In352       O363   2.259       .  S
In352       O357   2.247       .  S
In352       O359   2.254       .  S
In352       O360   2.265       .  S
In352       O361   2.244       .  S
In352       O364   2.225       .  S
C353        O359   1.263       .  A
C353        O361   1.261       .  A
C353        C840   1.480   1_556  S
O354        C362   1.260       .  A
O355        C362   1.265       .  A
C356        O363   1.263       .  A
C356        O357   1.263       .  A
C356        C816   1.484       .  S
C358        O360   1.265       .  A
C358        O364   1.260       .  A
C358       C1224   1.479       .  S
C362        C733   1.481       .  S
In365       O367   2.234       .  S
In365       O368   2.255       .  S
In365       O376   2.248       .  S
In365       O370   2.240       .  S
In365       O372   2.252       .  S
In365       O373   2.268       .  S
In365       O374   2.226       .  S
In365       O377   2.227       .  S
C366        O372   1.263       .  A
C366        O374   1.260       .  A
C366        C768   1.474       .  S
O367        C375   1.260       .  A
O368        C375   1.264       .  A
C369        O376   1.263       .  A
C369        O370   1.262       .  A
C369        C781   1.479       .  S
C371        O373   1.265       .  A
C371        O377   1.260       .  A
C371       C2112   1.481       .  S
C375        C709   1.478       .  S
In378       O380   2.225       .  S
In378       O381   2.265       .  S
In378       O389   2.252       .  S
In378       O383   2.244       .  S
In378       O385   2.256       .  S
In378       O386   2.263       .  S
In378       O387   2.232       .  S
In378       O390   2.223       .  S
C379        O385   1.263       .  A
C379        O387   1.260       .  A
C379        C912   1.475       .  S
O380        C388   1.259       .  A
O381        C388   1.265       .  A
C382        O389   1.263       .  A
C382        O383   1.263       .  A
C382        C925   1.482       .  S
C384        O386   1.266       .  A
C384        O390   1.262       .  A
C384        C685   1.480       .  S
C388        C720   1.479       .  S
In391       O393   2.230       .  S
In391       O394   2.259       .  S
In391       O402   2.248       .  S
In391       O396   2.249       .  S
In391       O398   2.261       .  S
In391       O399   2.266       .  S
In391       O400   2.234       .  S
In391       O403   2.234       .  S
C392        O398   1.263       .  A
C392        O400   1.260       .  A
C392        C648   1.479   1_556  S
O393        C401   1.261       .  A
O394        C401   1.264       .  A
C395        O402   1.262       .  A
C395        O396   1.262       .  A
C395        C672   1.479       .  S
C397        O399   1.263       .  A
C397        O403   1.260       .  A
C397        C613   1.481       .  S
C401       C1669   1.478       .  S
In404       O406   2.225       .  S
In404       O407   2.271       .  S
In404       O415   2.247       .  S
In404       O409   2.261       .  S
In404       O411   2.261       .  S
In404       O412   2.277       .  S
In404       O413   2.232   1_554  S
In404       O416   2.237       .  S
C405        O411   1.265   1_556  A
C405        O413   1.260       .  A
C405        C565   1.480       .  S
O406        C414   1.262       .  A
O407        C414   1.268       .  A
C408        O415   1.263       .  A
C408        O409   1.265       .  A
C408        C600   1.483       .  S
C410        O412   1.265       .  A
C410        O416   1.260       .  A
C410        C624   1.485       .  S
C414        C997   1.484       .  S
In417       O419   2.224       .  S
In417       O420   2.267       .  S
In417       O428   2.245       .  S
In417       O422   2.254       .  S
In417       O424   2.266       .  S
In417       O425   2.265       .  S
In417       O426   2.237       .  S
In417       O429   2.245       .  S
C418        O424   1.264       .  A
C418        O426   1.259       .  A
C418        C637   1.481       .  S
O419        C427   1.261       .  A
O420        C427   1.266       .  A
C421        O428   1.262       .  A
C421        O422   1.263       .  A
C421        C661   1.479       .  S
C423        O425   1.261       .  A
C423        O429   1.259       .  A
C423        C541   1.480       .  S
C427       C1632   1.480       .  S
In430       O432   2.224       .  S
In430       O433   2.268       .  S
In430       O441   2.245       .  S
In430       O435   2.251       .  S
In430       O437   2.252       .  S
In430       O438   2.269       .  S
In430       O439   2.245       .  S
In430       O442   2.220       .  S
C431        O437   1.264       .  A
C431        O439   1.262       .  A
C431        C493   1.481       .  S
O432        C440   1.261       .  A
O433        C440   1.266       .  A
C434        O441   1.263       .  A
C434        O435   1.263       .  A
C434        C528   1.481       .  S
C436        O438   1.265       .  A
C436        O442   1.260       .  A
C436        C552   1.480       .  S
C440        C864   1.481       .  S
In443       O445   2.225       .  S
In443       O446   2.260       .  S
In443       O454   2.243       .  S
In443       O448   2.263       .  S
In443       O450   2.259       .  S
In443       O451   2.270       .  S
In443       O452   2.231       .  S
In443       O455   2.234       .  S
C444        O450   1.265       .  A
C444        O452   1.261       .  A
C444        C576   1.479       .  S
O445        C453   1.262       .  A
O446        C453   1.267       .  A
C447        O454   1.261       .  A
C447        O448   1.263       .  A
C447        C589   1.481       .  S
C449        O451   1.264       .  A
C449        O455   1.259       .  A
C449        C469   1.482       .  S
C453        C949   1.480       .  S
In456       O458   2.227       .  S
In456       O459   2.279       .  S
In456       O467   2.248       .  S
In456       O461   2.251       .  S
In456       O463   2.258       .  S
In456       O464   2.272       .  S
In456       O465   2.237       .  S
In456       O468   2.237       .  S
C457        O463   1.263       .  A
C457        O465   1.260       .  A
C457        C504   1.480       .  S
O458        C466   1.259       .  A
O459        C466   1.265       .  A
C460        O467   1.263       .  A
C460        O461   1.263       .  A
C460        C517   1.483       .  S
C462        O464   1.264       .  A
C462        O468   1.260       .  A
C462        C480   1.483       .  S
C466        C696   1.484       .  S
C469        C470   1.405       .  A
C469        C474   1.405       .  A
C470        C471   1.404       .  A
C470        H483   1.083       .  S
C471        C472   1.406       .  A
C471        H484   1.083       .  S
C472        C473   1.407       .  A
C472        C475   1.493       .  S
C473        C474   1.397       .  A
C473        H485   1.082       .  S
C474        H486   1.083       .  S
C475        C476   1.351       .  D
C475        H487   1.083       .  S
C476        C477   1.495       .  S
C476        H488   1.086       .  S
C477        C478   1.405       .  A
C477        C482   1.411       .  A
C478        C479   1.397       .  A
C478        H489   1.083       .  S
C479        C480   1.403       .  A
C479        H490   1.083       .  S
C480        C481   1.405       .  A
C481        C482   1.405       .  A
C481        H491   1.083       .  S
C482        H492   1.080       .  S
C493        C494   1.403       .  A
C493        C498   1.405       .  A
C494        C495   1.399       .  A
C494        H507   1.083       .  S
C495        C496   1.405       .  A
C495        H508   1.083   1_655  S
C496        C497   1.409       .  A
C496        C499   1.491       .  S
C497        C498   1.400       .  A
C497        H509   1.081       .  S
C498        H510   1.083       .  S
C499        C500   1.350       .  D
C499        H511   1.085   1_655  S
C500        C501   1.491   1_655  S
C500        H512   1.085       .  S
C501        C502   1.406   1_455  A
C501        C506   1.408       .  A
C502        C503   1.401   1_655  A
C502        H513   1.083       .  S
C503        C504   1.404       .  A
C503        H514   1.083   1_455  S
C504        C505   1.404       .  A
C505        C506   1.398       .  A
C505        H515   1.083       .  S
C506        H516   1.081       .  S
C517        C518   1.404       .  A
C517        C522   1.405       .  A
C518        C519   1.400       .  A
C518        H531   1.083       .  S
C519        C520   1.405       .  A
C519        H532   1.083       .  S
C520        C521   1.410       .  A
C520        C523   1.494       .  S
C521        C522   1.401       .  A
C521        H533   1.080   1_455  S
C522        H534   1.083       .  S
C523        C524   1.350   1_455  D
C523        H535   1.084   1_556  S
C524        C525   1.493   1_556  S
C524        H536   1.084       .  S
C525        C526   1.405       .  A
C525        C530   1.410       .  A
C526        C527   1.398       .  A
C526        H537   1.083       .  S
C527        C528   1.404       .  A
C527        H538   1.083       .  S
C528        C529   1.405       .  A
C529        C530   1.402       .  A
C529        H539   1.083       .  S
C530        H540   1.081   1_655  S
C541        C542   1.403       .  A
C541        C546   1.405       .  A
C542        C543   1.397       .  A
C542        H555   1.083       .  S
C543        C544   1.405       .  A
C543        H556   1.084       .  S
C544        C545   1.409       .  A
C544        C547   1.490       .  S
C545        C546   1.402       .  A
C545        H557   1.080       .  S
C546        H558   1.083       .  S
C547        C548   1.350       .  D
C547        H559   1.086       .  S
C548        C549   1.488       .  S
C548        H560   1.084       .  S
C549        C550   1.405       .  A
C549        C554   1.406       .  A
C550        C551   1.404       .  A
C550        H561   1.083       .  S
C551        C552   1.405       .  A
C551        H562   1.083       .  S
C552        C553   1.405       .  A
C553        C554   1.394       .  A
C553        H563   1.083       .  S
C554        H564   1.082       .  S
C565        C566   1.405       .  A
C565        C570   1.404       .  A
C566        C567   1.397       .  A
C566        H579   1.083       .  S
C567        C568   1.403       .  A
C567        H580   1.083       .  S
C568        C569   1.410       .  A
C568        C571   1.489       .  S
C569        C570   1.401       .  A
C569        H581   1.081       .  S
C570        H582   1.083       .  S
C571        C572   1.347       .  D
C571        H583   1.085       .  S
C572        C573   1.489       .  S
C572        H584   1.085       .  S
C573        C574   1.403       .  A
C573        C578   1.410       .  A
C574        C575   1.396       .  A
C574        H585   1.083       .  S
C575        C576   1.404       .  A
C575        H586   1.083       .  S
C576        C577   1.404       .  A
C577        C578   1.402       .  A
C577        H587   1.083       .  S
C578        H588   1.081       .  S
C589        C590   1.405       .  A
C589        C594   1.405       .  A
C590        C591   1.399       .  A
C590        H603   1.083       .  S
C591        C592   1.402       .  A
C591        H604   1.083       .  S
C592        C593   1.407       .  A
C592        C595   1.485       .  S
C593        C594   1.404       .  A
C593        H605   1.083       .  S
C594        H606   1.083       .  S
C595        C596   1.346       .  D
C595        H607   1.087       .  S
C596        C597   1.487       .  S
C596        H608   1.087       .  S
C597        C598   1.404       .  A
C597        C602   1.405       .  A
C598        C599   1.403       .  A
C598        H609   1.083       .  S
C599        C600   1.406       .  A
C599        H610   1.083       .  S
C600        C601   1.406       .  A
C601        C602   1.400       .  A
C601        H611   1.083       .  S
C602        H612   1.083       .  S
C613        C614   1.406       .  A
C613        C618   1.404       .  A
C614        C615   1.404       .  A
C614        H627   1.083       .  S
C615        C616   1.406       .  A
C615        H628   1.083       .  S
C616        C617   1.407       .  A
C616        C619   1.492       .  S
C617        C618   1.396       .  A
C617        H629   1.082       .  S
C618        H630   1.083       .  S
C619        C620   1.351   1_655  D
C619        H631   1.084   1_655  S
C620        C621   1.494   1_556  S
C620        H632   1.086   1_556  S
C621        C622   1.405       .  A
C621        C626   1.411       .  A
C622        C623   1.397       .  A
C622        H633   1.084       .  S
C623        C624   1.404       .  A
C623        H634   1.083       .  S
C624        C625   1.406       .  A
C625        C626   1.406       .  A
C625        H635   1.083       .  S
C626        H636   1.080   1_554  S
C637        C638   1.404       .  A
C637        C642   1.405       .  A
C638        C639   1.401       .  A
C638        H651   1.083       .  S
C639        C640   1.406       .  A
C639        H652   1.083       .  S
C640        C641   1.407       .  A
C640        C643   1.490       .  S
C641        C642   1.397       .  A
C641        H653   1.081       .  S
C642        H654   1.083       .  S
C643        C644   1.351       .  D
C643        H655   1.083       .  S
C644        C645   1.492       .  S
C644        H656   1.085       .  S
C645        C646   1.407       .  A
C645        C650   1.408       .  A
C646        C647   1.401       .  A
C646        H657   1.083       .  S
C647        C648   1.403       .  A
C647        H658   1.083   1_554  S
C648        C649   1.404       .  A
C649        C650   1.397       .  A
C649        H659   1.083       .  S
C650        H660   1.080       .  S
C661        C662   1.405       .  A
C661        C666   1.405       .  A
C662        C663   1.399       .  A
C662        H675   1.083       .  S
C663        C664   1.403       .  A
C663        H676   1.083       .  S
C664        C665   1.406       .  A
C664        C667   1.483       .  S
C665        C666   1.402       .  A
C665        H677   1.083       .  S
C666        H678   1.083       .  S
C667        C668   1.345       .  D
C667        H679   1.087       .  S
C668        C669   1.482       .  S
C668        H680   1.086       .  S
C669        C670   1.402       .  A
C669        C674   1.405       .  A
C670        C671   1.401       .  A
C670        H681   1.083       .  S
C671        C672   1.405       .  A
C671        H682   1.083       .  S
C672        C673   1.405       .  A
C673        C674   1.399       .  A
C673        H683   1.083       .  S
C674        H684   1.083       .  S
C685        C686   1.405       .  A
C685        C690   1.403       .  A
C686        C687   1.404       .  A
C686        H699   1.083       .  S
C687        C688   1.407       .  A
C687        H700   1.083       .  S
C688        C689   1.408       .  A
C688        C691   1.494       .  S
C689        C690   1.395       .  A
C689        H701   1.081       .  S
C690        H702   1.083       .  S
C691        C692   1.350       .  D
C691        H703   1.083       .  S
C692        C693   1.493       .  S
C692        H704   1.085       .  S
C693        C694   1.404       .  A
C693        C698   1.412       .  A
C694        C695   1.394       .  A
C694        H705   1.084       .  S
C695        C696   1.403       .  A
C695        H706   1.083       .  S
C696        C697   1.406       .  A
C697        C698   1.407       .  A
C697        H707   1.083       .  S
C698        H708   1.080       .  S
C709        C710   1.404       .  A
C709        C714   1.404       .  A
C710        C711   1.397       .  A
C710        H723   1.083       .  S
C711        C712   1.405       .  A
C711        H724   1.084       .  S
C712        C713   1.409       .  A
C712        C715   1.490       .  S
C713        C714   1.401       .  A
C713        H725   1.080       .  S
C714        H726   1.083       .  S
C715        C716   1.350       .  D
C715        H727   1.086       .  S
C716        C717   1.487       .  S
C716        H728   1.083       .  S
C717        C718   1.405       .  A
C717        C722   1.406       .  A
C718        C719   1.402       .  A
C718        H729   1.083       .  S
C719        C720   1.404       .  A
C719        H730   1.083       .  S
C720        C721   1.405       .  A
C721        C722   1.395       .  A
C721        H731   1.083       .  S
C722        H732   1.082       .  S
C733        C734   1.403       .  A
C733        C738   1.406       .  A
C734        C735   1.394       .  A
C734        H747   1.083       .  S
C735        C736   1.403       .  A
C735        H748   1.084       .  S
C736        C737   1.412       .  A
C736        C739   1.492       .  S
C737        C738   1.406       .  A
C737        H749   1.080       .  S
C738        H750   1.083       .  S
C739        C740   1.349   1_655  D
C739        H751   1.086   1_655  S
C740        C741   1.491       .  S
C740        H752   1.083   1_455  S
C741        C742   1.405       .  A
C741        C746   1.408   1_556  A
C742        C743   1.403   1_556  A
C742        H753   1.083       .  S
C743        C744   1.405       .  A
C743        H754   1.083       .  S
C744        C745   1.404       .  A
C745        C746   1.397       .  A
C745        H755   1.083       .  S
C746        H756   1.082       .  S
C757        C758   1.404       .  A
C757        C762   1.403       .  A
C758        C759   1.395       .  A
C758        H771   1.083       .  S
C759        C760   1.402       .  A
C759        H772   1.083       .  S
C760        C761   1.409       .  A
C760        C763   1.483       .  S
C761        C762   1.399       .  A
C761        H773   1.081       .  S
C762        H774   1.083       .  S
C763        C764   1.345       .  D
C763        H775   1.085       .  S
C764        C765   1.484       .  S
C764        H776   1.085       .  S
C765        C766   1.402       .  A
C765        C770   1.410       .  A
C766        C767   1.394       .  A
C766        H777   1.083       .  S
C767        C768   1.404       .  A
C767        H778   1.083       .  S
C768        C769   1.403       .  A
C769        C770   1.399       .  A
C769        H779   1.083       .  S
C770        H780   1.081       .  S
C781        C782   1.403       .  A
C781        C786   1.403       .  A
C782        C783   1.398       .  A
C782        H795   1.083       .  S
C783        C784   1.406       .  A
C783        H796   1.083       .  S
C784        C785   1.412       .  A
C784        C787   1.495       .  S
C785        C786   1.400       .  A
C785        H797   1.079       .  S
C786        H798   1.083       .  S
C787        C788   1.350       .  D
C787        H799   1.083       .  S
C788        C789   1.492       .  S
C788        H800   1.082       .  S
C789        C790   1.405       .  A
C789        C794   1.410       .  A
C790        C791   1.398       .  A
C790        H801   1.084       .  S
C791        C792   1.403       .  A
C791        H802   1.083       .  S
C792        C793   1.405       .  A
C793        C794   1.400       .  A
C793        H803   1.083       .  S
C794        H804   1.080       .  S
C805        C806   1.404       .  A
C805        C810   1.406       .  A
C806        C807   1.400       .  A
C806        H819   1.083       .  S
C807        C808   1.406       .  A
C807        H820   1.083       .  S
C808        C809   1.410       .  A
C808        C811   1.495       .  S
C809        C810   1.402       .  A
C809        H821   1.081       .  S
C810        H822   1.083       .  S
C811        C812   1.352       .  D
C811        H823   1.084       .  S
C812        C813   1.496       .  S
C812        H824   1.084       .  S
C813        C814   1.407       .  A
C813        C818   1.409       .  A
C814        C815   1.402       .  A
C814        H825   1.083       .  S
C815        C816   1.405       .  A
C815        H826   1.083       .  S
C816        C817   1.404       .  A
C817        C818   1.400       .  A
C817        H827   1.083       .  S
C818        H828   1.080       .  S
C829        C830   1.403       .  A
C829        C834   1.405       .  A
C830        C831   1.399       .  A
C830        H843   1.083       .  S
C831        C832   1.404       .  A
C831        H844   1.083       .  S
C832        C833   1.408       .  A
C832        C835   1.487       .  S
C833        C834   1.398       .  A
C833        H845   1.081       .  S
C834        H846   1.083       .  S
C835        C836   1.349       .  D
C835        H847   1.085       .  S
C836        C837   1.489       .  S
C836        H848   1.085       .  S
C837        C838   1.405       .  A
C837        C842   1.408       .  A
C838        C839   1.400       .  A
C838        H849   1.083       .  S
C839        C840   1.404       .  A
C839        H850   1.083   1_554  S
C840        C841   1.405       .  A
C841        C842   1.399       .  A
C841        H851   1.083       .  S
C842        H852   1.081       .  S
C853        C854   1.404       .  A
C853        C858   1.403       .  A
C854        C855   1.402       .  A
C854        H867   1.083       .  S
C855        C856   1.406       .  A
C855        H868   1.083       .  S
C856        C857   1.410       .  A
C856        C859   1.493       .  S
C857        C858   1.398       .  A
C857        H869   1.081       .  S
C858        H870   1.083       .  S
C859        C860   1.349       .  D
C859        H871   1.084       .  S
C860        C861   1.492       .  S
C860        H872   1.084       .  S
C861        C862   1.403       .  A
C861        C866   1.411       .  A
C862        C863   1.394       .  A
C862        H873   1.084       .  S
C863        C864   1.403       .  A
C863        H874   1.083       .  S
C864        C865   1.406       .  A
C865        C866   1.405       .  A
C865        H875   1.083       .  S
C866        H876   1.080       .  S
C877        C878   1.405       .  A
C877        C882   1.405       .  A
C878        C879   1.403       .  A
C878        H891   1.083       .  S
C879        C880   1.405       .  A
C879        H892   1.083       .  S
C880        C881   1.409       .  A
C880        C883   1.493       .  S
C881        C882   1.398       .  A
C881        H893   1.081       .  S
C882        H894   1.083       .  S
C883        C884   1.350       .  D
C883        H895   1.084       .  S
C884        C885   1.492       .  S
C884        H896   1.085       .  S
C885        C886   1.404       .  A
C885        C890   1.411       .  A
C886        C887   1.395       .  A
C886        H897   1.084       .  S
C887        C888   1.403       .  A
C887        H898   1.083       .  S
C888        C889   1.406       .  A
C889        C890   1.405       .  A
C889        H899   1.083       .  S
C890        H900   1.080       .  S
C901        C902   1.404       .  A
C901        C906   1.403       .  A
C902        C903   1.398       .  A
C902        H915   1.083       .  S
C903        C904   1.402       .  A
C903        H916   1.083       .  S
C904        C905   1.407   1_655  A
C904        C907   1.482   1_655  S
C905        C906   1.399   1_455  A
C905        H917   1.082       .  S
C906        H918   1.083       .  S
C907        C908   1.346       .  D
C907        H919   1.086       .  S
C908        C909   1.483       .  S
C908        H920   1.086       .  S
C909        C910   1.404       .  A
C909        C914   1.406       .  A
C910        C911   1.401       .  A
C910        H921   1.083       .  S
C911        C912   1.404       .  A
C911        H922   1.083       .  S
C912        C913   1.403       .  A
C913        C914   1.396       .  A
C913        H923   1.083       .  S
C914        H924   1.082       .  S
C925        C926   1.404       .  A
C925        C930   1.404       .  A
C926        C927   1.401       .  A
C926        H939   1.083       .  S
C927        C928   1.407       .  A
C927        H940   1.083       .  S
C928        C929   1.411       .  A
C928        C931   1.497       .  S
C929        C930   1.400       .  A
C929        H941   1.079   1_455  S
C930        H942   1.083       .  S
C931        C932   1.351   1_455  D
C931        H943   1.085       .  S
C932        C933   1.492   1_556  S
C932        H944   1.082       .  S
C933        C934   1.404       .  A
C933        C938   1.409   1_655  A
C934        C935   1.398       .  A
C934        H945   1.083       .  S
C935        C936   1.404       .  A
C935        H946   1.083       .  S
C936        C937   1.406       .  A
C937        C938   1.403   1_655  A
C937        H947   1.083   1_655  S
C938        H948   1.081       .  S
C949        C950   1.405       .  A
C949        C954   1.403       .  A
C950        C951   1.404       .  A
C950        H963   1.083       .  S
C951        C952   1.406       .  A
C951        H964   1.083       .  S
C952        C953   1.408       .  A
C952        C955   1.491       .  S
C953        C954   1.395       .  A
C953        H965   1.081       .  S
C954        H966   1.083       .  S
C955        C956   1.349       .  D
C955        H967   1.084       .  S
C956        C957   1.490       .  S
C956        H968   1.085       .  S
C957        C958   1.403       .  A
C957        C962   1.411       .  A
C958        C959   1.393       .  A
C958        H969   1.084       .  S
C959        C960   1.403       .  A
C959        H970   1.083       .  S
C960        C961   1.405       .  A
C961        C962   1.405       .  A
C961        H971   1.083       .  S
C962        H972   1.080       .  S
C973        C974   1.403       .  A
C973        C978   1.405       .  A
C974        C975   1.394       .  A
C974        H987   1.082       .  S
C975        C976   1.403       .  A
C975        H988   1.085       .  S
C976        C977   1.411       .  A
C976        C979   1.490       .  S
C977        C978   1.404       .  A
C977        H989   1.078       .  S
C978        H990   1.084       .  S
C979        C980   1.349       .  D
C979        H991   1.087       .  S
C980        C981   1.490       .  S
C980        H992   1.085       .  S
C981        C982   1.405       .  A
C981        C986   1.408       .  A
C982        C983   1.402       .  A
C982        H993   1.084       .  S
C983        C984   1.405       .  A
C983        H994   1.084       .  S
C984        C985   1.404       .  A
C985        C986   1.395       .  A
C985        H995   1.084       .  S
C986        H996   1.082       .  S
C997        C998   1.404       .  A
C997       C1002   1.406       .  A
C998        C999   1.395       .  A
C998       H1011   1.083       .  S
C999       C1000   1.404       .  A
C999       H1012   1.084       .  S
C1000      C1001   1.411       .  A
C1000      C1003   1.492       .  S
C1001      C1002   1.407       .  A
C1001      H1013   1.081       .  S
C1002      H1014   1.083       .  S
C1003      C1004   1.351       .  D
C1003      H1015   1.085       .  S
C1004      C1005   1.495       .  S
C1004      H1016   1.084       .  S
C1005      C1006   1.407       .  A
C1005      C1010   1.408       .  A
C1006      C1007   1.405       .  A
C1006      H1017   1.083       .  S
C1007      C1008   1.405       .  A
C1007      H1018   1.083       .  S
C1008      C1009   1.404       .  A
C1009      C1010   1.396       .  A
C1009      H1019   1.083       .  S
C1010      H1020   1.081       .  S
C1021      C1022   1.404       .  A
C1021      C1026   1.404       .  A
C1022      C1023   1.398       .  A
C1022      H1035   1.083       .  S
C1023      C1024   1.404       .  A
C1023      H1036   1.083       .  S
C1024      C1025   1.407       .  A
C1024      C1027   1.483       .  S
C1025      C1026   1.395       .  A
C1025      H1037   1.082       .  S
C1026      H1038   1.083       .  S
C1027      C1028   1.346       .  D
C1027      H1039   1.085       .  S
C1028      C1029   1.483       .  S
C1028      H1040   1.086       .  S
C1029      C1030   1.403       .  A
C1029      C1034   1.407       .  A
C1030      C1031   1.397       .  A
C1030      H1041   1.083       .  S
C1031      C1032   1.404       .  A
C1031      H1042   1.083       .  S
C1032      C1033   1.404       .  A
C1033      C1034   1.397       .  A
C1033      H1043   1.083       .  S
C1034      H1044   1.082       .  S
C1045      C1046   1.404       .  A
C1045      C1050   1.404       .  A
C1046      C1047   1.398       .  A
C1046      H1059   1.083       .  S
C1047      C1048   1.404       .  A
C1047      H1060   1.083       .  S
C1048      C1049   1.411       .  A
C1048      C1051   1.493       .  S
C1049      C1050   1.402       .  A
C1049      H1061   1.080       .  S
C1050      H1062   1.083       .  S
C1051      C1052   1.349       .  D
C1051      H1063   1.085       .  S
C1052      C1053   1.492       .  S
C1052      H1064   1.084       .  S
C1053      C1054   1.404       .  A
C1053      C1058   1.411       .  A
C1054      C1055   1.398       .  A
C1054      H1065   1.083       .  S
C1055      C1056   1.404       .  A
C1055      H1066   1.083       .  S
C1056      C1057   1.404       .  A
C1057      C1058   1.402       .  A
C1057      H1067   1.083       .  S
C1058      H1068   1.081       .  S
C1069      C1070   1.404       .  A
C1069      C1074   1.406       .  A
C1070      C1071   1.396       .  A
C1070      H1083   1.083       .  S
C1071      C1072   1.404       .  A
C1071      H1084   1.084       .  S
C1072      C1073   1.410       .  A
C1072      C1075   1.492   1_554  S
C1073      C1074   1.405       .  A
C1073      H1085   1.081   1_554  S
C1074      H1086   1.083       .  S
C1075      C1076   1.349       .  D
C1075      H1087   1.086       .  S
C1076      C1077   1.491       .  S
C1076      H1088   1.084       .  S
C1077      C1078   1.405       .  A
C1077      C1082   1.408       .  A
C1078      C1079   1.403       .  A
C1078      H1089   1.083       .  S
C1079      C1080   1.405       .  A
C1079      H1090   1.083       .  S
C1080      C1081   1.405       .  A
C1081      C1082   1.398       .  A
C1081      H1091   1.083       .  S
C1082      H1092   1.082       .  S
C1093      C1094   1.405       .  A
C1093      C1098   1.404       .  A
C1094      C1095   1.396       .  A
C1094      H1107   1.083       .  S
C1095      C1096   1.402       .  A
C1095      H1108   1.083       .  S
C1096      C1097   1.410       .  A
C1096      C1099   1.487       .  S
C1097      C1098   1.402       .  A
C1097      H1109   1.081       .  S
C1098      H1110   1.083       .  S
C1099      C1100   1.346       .  D
C1099      H1111   1.085       .  S
C1100      C1101   1.488       .  S
C1100      H1112   1.085       .  S
C1101      C1102   1.403       .  A
C1101      C1106   1.410       .  A
C1102      C1103   1.397       .  A
C1102      H1113   1.083       .  S
C1103      C1104   1.405       .  A
C1103      H1114   1.083       .  S
C1104      C1105   1.404       .  A
C1105      C1106   1.401       .  A
C1105      H1115   1.083       .  S
C1106      H1116   1.081       .  S
C1117      C1118   1.404       .  A
C1117      C1122   1.405       .  A
C1118      C1119   1.397       .  A
C1118      H1131   1.083       .  S
C1119      C1120   1.404       .  A
C1119      H1132   1.083       .  S
C1120      C1121   1.411       .  A
C1120      C1123   1.493   1_554  S
C1121      C1122   1.402       .  A
C1121      H1133   1.080       .  S
C1122      H1134   1.083       .  S
C1123      C1124   1.350       .  D
C1123      H1135   1.083       .  S
C1124      C1125   1.495       .  S
C1124      H1136   1.084   1_556  S
C1125      C1126   1.405       .  A
C1125      C1130   1.411       .  A
C1126      C1127   1.398       .  A
C1126      H1137   1.083       .  S
C1127      C1128   1.404       .  A
C1127      H1138   1.083       .  S
C1128      C1129   1.404       .  A
C1129      C1130   1.402       .  A
C1129      H1139   1.083       .  S
C1130      H1140   1.080       .  S
C1141      C1142   1.403       .  A
C1141      C1146   1.404       .  A
C1142      C1143   1.397       .  A
C1142      H1155   1.083       .  S
C1143      C1144   1.405       .  A
C1143      H1156   1.083       .  S
C1144      C1145   1.410       .  A
C1144      C1147   1.490       .  S
C1145      C1146   1.401       .  A
C1145      H1157   1.080       .  S
C1146      H1158   1.083       .  S
C1147      C1148   1.349       .  D
C1147      H1159   1.086       .  S
C1148      C1149   1.488       .  S
C1148      H1160   1.084       .  S
C1149      C1150   1.404       .  A
C1149      C1154   1.407       .  A
C1150      C1151   1.401       .  A
C1150      H1161   1.083       .  S
C1151      C1152   1.405       .  A
C1151      H1162   1.083       .  S
C1152      C1153   1.404       .  A
C1153      C1154   1.396       .  A
C1153      H1163   1.083       .  S
C1154      H1164   1.082       .  S
C1165      C1166   1.403       .  A
C1165      C1170   1.404       .  A
C1166      C1167   1.397       .  A
C1166      H1179   1.083       .  S
C1167      C1168   1.404       .  A
C1167      H1180   1.083       .  S
C1168      C1169   1.409       .  A
C1168      C1171   1.489       .  S
C1169      C1170   1.400       .  A
C1169      H1181   1.081       .  S
C1170      H1182   1.083       .  S
C1171      C1172   1.349       .  D
C1171      H1183   1.084       .  S
C1172      C1173   1.489       .  S
C1172      H1184   1.084       .  S
C1173      C1174   1.405       .  A
C1173      C1178   1.409       .  A
C1174      C1175   1.398       .  A
C1174      H1185   1.083       .  S
C1175      C1176   1.404       .  A
C1175      H1186   1.083       .  S
C1176      C1177   1.403       .  A
C1177      C1178   1.398       .  A
C1177      H1187   1.083       .  S
C1178      H1188   1.081       .  S
C1189      C1190   1.404       .  A
C1189      C1194   1.403       .  A
C1190      C1191   1.400       .  A
C1190      H1203   1.083   1_554  S
C1191      C1192   1.405       .  A
C1191      H1204   1.083       .  S
C1192      C1193   1.407       .  A
C1192      C1195   1.487       .  S
C1193      C1194   1.395       .  A
C1193      H1205   1.081       .  S
C1194      H1206   1.083       .  S
C1195      C1196   1.349       .  D
C1195      H1207   1.085       .  S
C1196      C1197   1.486       .  S
C1196      H1208   1.085       .  S
C1197      C1198   1.405       .  A
C1197      C1202   1.407       .  A
C1198      C1199   1.399       .  A
C1198      H1209   1.083       .  S
C1199      C1200   1.403       .  A
C1199      H1210   1.083       .  S
C1200      C1201   1.405       .  A
C1201      C1202   1.397       .  A
C1201      H1211   1.083       .  S
C1202      H1212   1.081       .  S
C1213      C1214   1.403       .  A
C1213      C1218   1.404       .  A
C1214      C1215   1.392       .  A
C1214      H1227   1.083       .  S
C1215      C1216   1.403       .  A
C1215      H1228   1.084       .  S
C1216      C1217   1.412       .  A
C1216      C1219   1.489       .  S
C1217      C1218   1.404       .  A
C1217      H1229   1.080       .  S
C1218      H1230   1.083       .  S
C1219      C1220   1.348       .  D
C1219      H1231   1.085       .  S
C1220      C1221   1.489       .  S
C1220      H1232   1.083       .  S
C1221      C1222   1.405       .  A
C1221      C1226   1.408       .  A
C1222      C1223   1.403       .  A
C1222      H1233   1.083       .  S
C1223      C1224   1.405       .  A
C1223      H1234   1.083       .  S
C1224      C1225   1.404       .  A
C1225      C1226   1.394       .  A
C1225      H1235   1.083       .  S
C1226      H1236   1.081       .  S
C1237      C1238   1.403       .  A
C1237      C1242   1.405       .  A
C1238      C1239   1.395       .  A
C1238      H1251   1.083       .  S
C1239      C1240   1.404       .  A
C1239      H1252   1.084       .  S
C1240      C1241   1.411       .  A
C1240      C1243   1.491       .  S
C1241      C1242   1.404       .  A
C1241      H1253   1.080   1_556  S
C1242      H1254   1.083       .  S
C1243      C1244   1.349   1_556  D
C1243      H1255   1.086       .  S
C1244      C1245   1.490       .  S
C1244      H1256   1.084       .  S
C1245      C1246   1.404       .  A
C1245      C1250   1.408       .  A
C1246      C1247   1.402       .  A
C1246      H1257   1.083       .  S
C1247      C1248   1.405       .  A
C1247      H1258   1.083       .  S
C1248      C1249   1.404       .  A
C1249      C1250   1.397       .  A
C1249      H1259   1.083       .  S
C1250      H1260   1.082       .  S
C1261      C1262   1.404       .  A
C1261      C1266   1.405       .  A
C1262      C1263   1.394       .  A
C1262      H1275   1.083       .  S
C1263      C1264   1.403       .  A
C1263      H1276   1.084       .  S
C1264      C1265   1.409       .  A
C1264      C1267   1.487       .  S
C1265      C1266   1.404       .  A
C1265      H1277   1.081       .  S
C1266      H1278   1.083       .  S
C1267      C1268   1.348       .  D
C1267      H1279   1.085       .  S
C1268      C1269   1.489       .  S
C1268      H1280   1.084       .  S
C1269      C1270   1.405       .  A
C1269      C1274   1.408       .  A
C1270      C1271   1.403       .  A
C1270      H1281   1.083       .  S
C1271      C1272   1.405       .  A
C1271      H1282   1.083       .  S
C1272      C1273   1.404       .  A
C1273      C1274   1.395       .  A
C1273      H1283   1.083       .  S
C1274      H1284   1.082       .  S
C1285      C1286   1.407       .  A
C1285      C1290   1.404       .  A
C1286      C1287   1.405       .  A
C1286      H1299   1.083       .  S
C1287      C1288   1.406       .  A
C1287      H1300   1.083       .  S
C1288      C1289   1.408       .  A
C1288      C1291   1.494       .  S
C1289      C1290   1.397       .  A
C1289      H1301   1.082       .  S
C1290      H1302   1.083       .  S
C1291      C1292   1.351       .  D
C1291      H1303   1.084       .  S
C1292      C1293   1.494       .  S
C1292      H1304   1.086       .  S
C1293      C1294   1.405       .  A
C1293      C1298   1.411       .  A
C1294      C1295   1.396       .  A
C1294      H1305   1.084       .  S
C1295      C1296   1.402       .  A
C1295      H1306   1.083       .  S
C1296      C1297   1.407       .  A
C1297      C1298   1.406       .  A
C1297      H1307   1.083       .  S
C1298      H1308   1.080       .  S
C1309      C1310   1.403       .  A
C1309      C1314   1.406       .  A
C1310      C1311   1.399       .  A
C1310      H1323   1.083       .  S
C1311      C1312   1.406       .  A
C1311      H1324   1.083       .  S
C1312      C1313   1.410       .  A
C1312      C1315   1.493       .  S
C1313      C1314   1.401       .  A
C1313      H1325   1.080       .  S
C1314      H1326   1.083       .  S
C1315      C1316   1.351       .  D
C1315      H1327   1.085       .  S
C1316      C1317   1.492       .  S
C1316      H1328   1.084       .  S
C1317      C1318   1.406       .  A
C1317      C1322   1.409       .  A
C1318      C1319   1.402       .  A
C1318      H1329   1.083       .  S
C1319      C1320   1.405       .  A
C1319      H1330   1.083       .  S
C1320      C1321   1.404       .  A
C1321      C1322   1.399       .  A
C1321      H1331   1.083       .  S
C1322      H1332   1.081       .  S
C1333      C1334   1.404       .  A
C1333      C1338   1.405       .  A
C1334      C1335   1.402       .  A
C1334      H1347   1.083       .  S
C1335      C1336   1.407       .  A
C1335      H1348   1.084       .  S
C1336      C1337   1.410       .  A
C1336      C1339   1.497       .  S
C1337      C1338   1.400       .  A
C1337      H1349   1.080       .  S
C1338      H1350   1.083       .  S
C1339      C1340   1.353       .  D
C1339      H1351   1.083       .  S
C1340      C1341   1.498       .  S
C1340      H1352   1.083       .  S
C1341      C1342   1.407       .  A
C1341      C1346   1.411       .  A
C1342      C1343   1.400       .  A
C1342      H1353   1.084       .  S
C1343      C1344   1.404       .  A
C1343      H1354   1.083       .  S
C1344      C1345   1.405       .  A
C1345      C1346   1.402       .  A
C1345      H1355   1.083       .  S
C1346      H1356   1.079       .  S
C1357      C1358   1.405       .  A
C1357      C1362   1.403       .  A
C1358      C1359   1.401       .  A
C1358      H1371   1.083       .  S
C1359      C1360   1.405       .  A
C1359      H1372   1.083       .  S
C1360      C1361   1.408       .  A
C1360      C1363   1.488       .  S
C1361      C1362   1.394       .  A
C1361      H1373   1.081       .  S
C1362      H1374   1.083       .  S
C1363      C1364   1.348       .  D
C1363      H1375   1.083       .  S
C1364      C1365   1.487       .  S
C1364      H1376   1.085       .  S
C1365      C1366   1.403       .  A
C1365      C1370   1.410       .  A
C1366      C1367   1.393       .  A
C1366      H1377   1.084       .  S
C1367      C1368   1.403       .  A
C1367      H1378   1.083       .  S
C1368      C1369   1.404       .  A
C1369      C1370   1.403       .  A
C1369      H1379   1.083       .  S
C1370      H1380   1.080       .  S
C1381      C1382   1.403       .  A
C1381      C1386   1.403       .  A
C1382      C1383   1.399       .  A
C1382      H1395   1.083       .  S
C1383      C1384   1.405       .  A
C1383      H1396   1.083       .  S
C1384      C1385   1.409       .  A
C1384      C1387   1.488       .  S
C1385      C1386   1.396       .  A
C1385      H1397   1.080       .  S
C1386      H1398   1.083       .  S
C1387      C1388   1.348       .  D
C1387      H1399   1.085       .  S
C1388      C1389   1.486       .  S
C1388      H1400   1.084       .  S
C1389      C1390   1.404       .  A
C1389      C1394   1.408       .  A
C1390      C1391   1.397       .  A
C1390      H1401   1.083       .  S
C1391      C1392   1.402       .  A
C1391      H1402   1.083       .  S
C1392      C1393   1.405       .  A
C1393      C1394   1.398       .  A
C1393      H1403   1.083       .  S
C1394      H1404   1.081       .  S
C1405      C1406   1.403       .  A
C1405      C1410   1.405       .  A
C1406      C1407   1.399       .  A
C1406      H1419   1.083       .  S
C1407      C1408   1.406       .  A
C1407      H1420   1.083       .  S
C1408      C1409   1.411       .  A
C1408      C1411   1.497       .  S
C1409      C1410   1.403       .  A
C1409      H1421   1.080       .  S
C1410      H1422   1.083       .  S
C1411      C1412   1.351   1_554  D
C1411      H1423   1.085   1_554  S
C1412      C1413   1.495       .  S
C1412      H1424   1.083   1_556  S
C1413      C1414   1.405       .  A
C1413      C1418   1.410       .  A
C1414      C1415   1.400       .  A
C1414      H1425   1.083       .  S
C1415      C1416   1.404       .  A
C1415      H1426   1.083       .  S
C1416      C1417   1.406       .  A
C1417      C1418   1.403       .  A
C1417      H1427   1.083       .  S
C1418      H1428   1.081       .  S
C1429      C1430   1.406       .  A
C1429      C1434   1.404       .  A
C1430      C1431   1.405       .  A
C1430      H1443   1.083       .  S
C1431      C1432   1.407       .  A
C1431      H1444   1.083       .  S
C1432      C1433   1.407       .  A
C1432      C1435   1.493       .  S
C1433      C1434   1.395       .  A
C1433      H1445   1.081       .  S
C1434      H1446   1.083       .  S
C1435      C1436   1.351       .  D
C1435      H1447   1.084       .  S
C1436      C1437   1.490       .  S
C1436      H1448   1.085       .  S
C1437      C1438   1.404       .  A
C1437      C1442   1.410       .  A
C1438      C1439   1.396       .  A
C1438      H1449   1.084       .  S
C1439      C1440   1.404       .  A
C1439      H1450   1.083       .  S
C1440      C1441   1.406       .  A
C1441      C1442   1.405       .  A
C1441      H1451   1.083       .  S
C1442      H1452   1.081       .  S
C1453      C1454   1.406       .  A
C1453      C1458   1.405       .  A
C1454      C1455   1.404       .  A
C1454      H1467   1.083       .  S
C1455      C1456   1.405       .  A
C1455      H1468   1.083       .  S
C1456      C1457   1.407       .  A
C1456      C1459   1.491       .  S
C1457      C1458   1.397       .  A
C1457      H1469   1.082       .  S
C1458      H1470   1.083       .  S
C1459      C1460   1.349       .  D
C1459      H1471   1.084       .  S
C1460      C1461   1.493       .  S
C1460      H1472   1.086       .  S
C1461      C1462   1.404       .  A
C1461      C1466   1.411       .  A
C1462      C1463   1.395       .  A
C1462      H1473   1.083       .  S
C1463      C1464   1.402       .  A
C1463      H1474   1.083       .  S
C1464      C1465   1.406       .  A
C1465      C1466   1.406       .  A
C1465      H1475   1.083       .  S
C1466      H1476   1.080       .  S
C1477      C1478   1.404       .  A
C1477      C1482   1.404       .  A
C1478      C1479   1.397       .  A
C1478      H1491   1.083       .  S
C1479      C1480   1.405       .  A
C1479      H1492   1.084       .  S
C1480      C1481   1.412       .  A
C1480      C1483   1.494       .  S
C1481      C1482   1.403       .  A
C1481      H1493   1.079       .  S
C1482      H1494   1.083       .  S
C1483      C1484   1.349       .  D
C1483      H1495   1.085       .  S
C1484      C1485   1.491       .  S
C1484      H1496   1.083       .  S
C1485      C1486   1.405       .  A
C1485      C1490   1.410       .  A
C1486      C1487   1.400       .  A
C1486      H1497   1.083       .  S
C1487      C1488   1.405       .  A
C1487      H1498   1.083       .  S
C1488      C1489   1.403       .  A
C1489      C1490   1.399       .  A
C1489      H1499   1.083       .  S
C1490      H1500   1.081       .  S
C1501      C1502   1.402       .  A
C1501      C1506   1.404       .  A
C1502      C1503   1.396       .  A
C1502      H1515   1.083       .  S
C1503      C1504   1.404       .  A
C1503      H1516   1.083       .  S
C1504      C1505   1.408       .  A
C1504      C1507   1.485       .  S
C1505      C1506   1.397       .  A
C1505      H1517   1.080       .  S
C1506      H1518   1.083       .  S
C1507      C1508   1.347       .  D
C1507      H1519   1.085       .  S
C1508      C1509   1.484       .  S
C1508      H1520   1.084       .  S
C1509      C1510   1.403       .  A
C1509      C1514   1.408       .  A
C1510      C1511   1.398       .  A
C1510      H1521   1.083       .  S
C1511      C1512   1.404       .  A
C1511      H1522   1.083       .  S
C1512      C1513   1.403       .  A
C1513      C1514   1.396       .  A
C1513      H1523   1.083       .  S
C1514      H1524   1.082       .  S
C1525      C1526   1.404       .  A
C1525      C1530   1.403       .  A
C1526      C1527   1.402       .  A
C1526      H1539   1.083       .  S
C1527      C1528   1.405       .  A
C1527      H1540   1.083       .  S
C1528      C1529   1.407       .  A
C1528      C1531   1.487       .  S
C1529      C1530   1.393       .  A
C1529      H1541   1.082       .  S
C1530      H1542   1.083       .  S
C1531      C1532   1.347       .  D
C1531      H1543   1.083       .  S
C1532      C1533   1.488       .  S
C1532      H1544   1.086       .  S
C1533      C1534   1.402       .  A
C1533      C1538   1.412       .  A
C1534      C1535   1.392       .  A
C1534      H1545   1.084       .  S
C1535      C1536   1.403       .  A
C1535      H1546   1.083       .  S
C1536      C1537   1.405       .  A
C1537      C1538   1.405       .  A
C1537      H1547   1.083       .  S
C1538      H1548   1.080       .  S
C1549      C1550   1.405       .  A
C1549      C1554   1.404       .  A
C1550      C1551   1.404       .  A
C1550      H1563   1.083       .  S
C1551      C1552   1.405       .  A
C1551      H1564   1.083       .  S
C1552      C1553   1.406       .  A
C1552      C1555   1.487       .  S
C1553      C1554   1.393       .  A
C1553      H1565   1.082       .  S
C1554      H1566   1.083       .  S
C1555      C1556   1.348       .  D
C1555      H1567   1.083       .  S
C1556      C1557   1.489       .  S
C1556      H1568   1.087       .  S
C1557      C1558   1.404       .  A
C1557      C1562   1.410       .  A
C1558      C1559   1.393       .  A
C1558      H1569   1.084       .  S
C1559      C1560   1.402       .  A
C1559      H1570   1.083       .  S
C1560      C1561   1.406       .  A
C1561      C1562   1.404       .  A
C1561      H1571   1.083       .  S
C1562      H1572   1.080       .  S
C1573      C1574   1.405       .  A
C1573      C1578   1.404       .  A
C1574      C1575   1.402   1_545  A
C1574      H1587   1.083   1_545  S
C1575      C1576   1.404   1_565  A
C1575      H1588   1.083       .  S
C1576      C1577   1.405       .  A
C1576      C1579   1.484   1_545  S
C1577      C1578   1.396       .  A
C1577      H1589   1.083       .  S
C1578      H1590   1.083       .  S
C1579      C1580   1.346       .  D
C1579      H1591   1.086       .  S
C1580      C1581   1.481       .  S
C1580      H1592   1.087   1_565  S
C1581      C1582   1.402       .  A
C1581      C1586   1.407       .  A
C1582      C1583   1.396       .  A
C1582      H1593   1.083       .  S
C1583      C1584   1.403       .  A
C1583      H1594   1.083       .  S
C1584      C1585   1.404       .  A
C1585      C1586   1.402       .  A
C1585      H1595   1.083       .  S
C1586      H1596   1.083       .  S
C1597      C1598   1.404       .  A
C1597      C1602   1.406       .  A
C1598      C1599   1.398       .  A
C1598      H1611   1.083       .  S
C1599      C1600   1.401       .  A
C1599      H1612   1.083       .  S
C1600      C1601   1.405   1_545  A
C1600      C1603   1.480   1_544  S
C1601      C1602   1.402   1_565  A
C1601      H1613   1.083       .  S
C1602      H1614   1.083       .  S
C1603      C1604   1.343       .  D
C1603      H1615   1.087       .  S
C1604      C1605   1.481       .  S
C1604      H1616   1.087       .  S
C1605      C1606   1.402       .  A
C1605      C1610   1.405       .  A
C1606      C1607   1.400       .  A
C1606      H1617   1.083   1_565  S
C1607      C1608   1.405       .  A
C1607      H1618   1.083       .  S
C1608      C1609   1.405       .  A
C1609      C1610   1.399       .  A
C1609      H1619   1.083       .  S
C1610      H1620   1.083       .  S
C1621      C1622   1.405       .  A
C1621      C1626   1.404       .  A
C1622      C1623   1.403       .  A
C1622      H1635   1.083       .  S
C1623      C1624   1.406       .  A
C1623      H1636   1.083       .  S
C1624      C1625   1.408       .  A
C1624      C1627   1.493       .  S
C1625      C1626   1.397       .  A
C1625      H1637   1.082       .  S
C1626      H1638   1.083       .  S
C1627      C1628   1.349       .  D
C1627      H1639   1.084       .  S
C1628      C1629   1.492       .  S
C1628      H1640   1.085       .  S
C1629      C1630   1.404       .  A
C1629      C1634   1.411       .  A
C1630      C1631   1.394       .  A
C1630      H1641   1.083       .  S
C1631      C1632   1.403       .  A
C1631      H1642   1.083       .  S
C1632      C1633   1.406       .  A
C1633      C1634   1.406       .  A
C1633      H1643   1.083       .  S
C1634      H1644   1.080       .  S
C1645      C1646   1.406       .  A
C1645      C1650   1.405       .  A
C1646      C1647   1.404       .  A
C1646      H1659   1.083       .  S
C1647      C1648   1.405       .  A
C1647      H1660   1.083       .  S
C1648      C1649   1.408       .  A
C1648      C1651   1.494       .  S
C1649      C1650   1.398       .  A
C1649      H1661   1.082       .  S
C1650      H1662   1.083       .  S
C1651      C1652   1.350       .  D
C1651      H1663   1.084       .  S
C1652      C1653   1.493       .  S
C1652      H1664   1.086       .  S
C1653      C1654   1.405       .  A
C1653      C1658   1.411       .  A
C1654      C1655   1.396       .  A
C1654      H1665   1.084       .  S
C1655      C1656   1.403       .  A
C1655      H1666   1.083       .  S
C1656      C1657   1.406       .  A
C1657      C1658   1.405       .  A
C1657      H1667   1.083       .  S
C1658      H1668   1.080       .  S
C1669      C1670   1.405       .  A
C1669      C1674   1.403       .  A
C1670      C1671   1.402       .  A
C1670      H1683   1.083       .  S
C1671      C1672   1.405       .  A
C1671      H1684   1.083       .  S
C1672      C1673   1.409       .  A
C1672      C1675   1.491       .  S
C1673      C1674   1.395       .  A
C1673      H1685   1.081       .  S
C1674      H1686   1.083       .  S
C1675      C1676   1.349       .  D
C1675      H1687   1.084       .  S
C1676      C1677   1.489       .  S
C1676      H1688   1.085       .  S
C1677      C1678   1.403       .  A
C1677      C1682   1.411       .  A
C1678      C1679   1.393       .  A
C1678      H1689   1.084       .  S
C1679      C1680   1.403       .  A
C1679      H1690   1.083       .  S
C1680      C1681   1.405       .  A
C1681      C1682   1.405       .  A
C1681      H1691   1.083       .  S
C1682      H1692   1.080       .  S
C1693      C1694   1.406       .  A
C1693      C1698   1.406       .  A
C1694      C1695   1.403       .  A
C1694      H1707   1.083       .  S
C1695      C1696   1.406       .  A
C1695      H1708   1.083       .  S
C1696      C1697   1.410       .  A
C1696      C1699   1.499       .  S
C1697      C1698   1.404       .  A
C1697      H1709   1.081       .  S
C1698      H1710   1.083       .  S
C1699      C1700   1.353       .  D
C1699      H1711   1.083       .  S
C1700      C1701   1.500       .  S
C1700      H1712   1.084       .  S
C1701      C1702   1.407       .  A
C1701      C1706   1.412       .  A
C1702      C1703   1.400       .  A
C1702      H1713   1.083       .  S
C1703      C1704   1.404       .  A
C1703      H1714   1.083       .  S
C1704      C1705   1.406       .  A
C1705      C1706   1.405       .  A
C1705      H1715   1.083       .  S
C1706      H1716   1.080       .  S
C1717      C1718   1.405       .  A
C1717      C1722   1.405       .  A
C1718      C1719   1.399       .  A
C1718      H1731   1.083       .  S
C1719      C1720   1.404       .  A
C1719      H1732   1.083       .  S
C1720      C1721   1.410       .  A
C1720      C1723   1.493       .  S
C1721      C1722   1.403       .  A
C1721      H1733   1.081       .  S
C1722      H1734   1.083       .  S
C1723      C1724   1.349       .  D
C1723      H1735   1.085       .  S
C1724      C1725   1.493       .  S
C1724      H1736   1.085       .  S
C1725      C1726   1.404       .  A
C1725      C1730   1.410       .  A
C1726      C1727   1.399       .  A
C1726      H1737   1.083       .  S
C1727      C1728   1.406       .  A
C1727      H1738   1.083       .  S
C1728      C1729   1.405       .  A
C1729      C1730   1.404       .  A
C1729      H1739   1.083       .  S
C1730      H1740   1.081       .  S
C1741      C1742   1.403       .  A
C1741      C1746   1.406       .  A
C1742      C1743   1.394       .  A
C1742      H1755   1.083       .  S
C1743      C1744   1.403       .  A
C1743      H1756   1.084       .  S
C1744      C1745   1.412       .  A
C1744      C1747   1.492       .  S
C1745      C1746   1.406       .  A
C1745      H1757   1.080       .  S
C1746      H1758   1.083       .  S
C1747      C1748   1.350       .  D
C1747      H1759   1.085       .  S
C1748      C1749   1.492       .  S
C1748      H1760   1.084       .  S
C1749      C1750   1.406       .  A
C1749      C1754   1.408       .  A
C1750      C1751   1.404       .  A
C1750      H1761   1.083       .  S
C1751      C1752   1.405       .  A
C1751      H1762   1.083       .  S
C1752      C1753   1.404       .  A
C1753      C1754   1.396       .  A
C1753      H1763   1.083       .  S
C1754      H1764   1.082       .  S
C1765      C1766   1.403       .  A
C1765      C1770   1.404       .  A
C1766      C1767   1.396       .  A
C1766      H1779   1.083       .  S
C1767      C1768   1.403       .  A
C1767      H1780   1.083       .  S
C1768      C1769   1.410       .  A
C1768      C1771   1.488       .  S
C1769      C1770   1.400       .  A
C1769      H1781   1.081       .  S
C1770      H1782   1.083       .  S
C1771      C1772   1.346       .  D
C1771      H1783   1.084       .  S
C1772      C1773   1.487       .  S
C1772      H1784   1.084       .  S
C1773      C1774   1.402       .  A
C1773      C1778   1.411       .  A
C1774      C1775   1.395       .  A
C1774      H1785   1.083       .  S
C1775      C1776   1.404       .  A
C1775      H1786   1.083       .  S
C1776      C1777   1.403       .  A
C1777      C1778   1.401       .  A
C1777      H1787   1.083       .  S
C1778      H1788   1.081       .  S
C1789      C1790   1.404       .  A
C1789      C1794   1.405       .  A
C1790      C1791   1.400       .  A
C1790      H1803   1.083       .  S
C1791      C1792   1.407       .  A
C1791      H1804   1.083       .  S
C1792      C1793   1.411       .  A
C1792      C1795   1.497       .  S
C1793      C1794   1.402       .  A
C1793      H1805   1.079       .  S
C1794      H1806   1.083       .  S
C1795      C1796   1.352       .  D
C1795      H1807   1.084       .  S
C1796      C1797   1.494       .  S
C1796      H1808   1.082       .  S
C1797      C1798   1.406       .  A
C1797      C1802   1.409       .  A
C1798      C1799   1.401       .  A
C1798      H1809   1.083       .  S
C1799      C1800   1.405       .  A
C1799      H1810   1.083       .  S
C1800      C1801   1.404       .  A
C1801      C1802   1.400       .  A
C1801      H1811   1.083       .  S
C1802      H1812   1.081       .  S
C1813      C1814   1.403       .  A
C1813      C1818   1.405       .  A
C1814      C1815   1.397       .  A
C1814      H1827   1.083       .  S
C1815      C1816   1.405       .  A
C1815      H1828   1.084       .  S
C1816      C1817   1.410       .  A
C1816      C1819   1.491   1_554  S
C1817      C1818   1.403       .  A
C1817      H1829   1.080   1_554  S
C1818      H1830   1.083       .  S
C1819      C1820   1.350   1_565  D
C1819      H1831   1.087   1_566  S
C1820      C1821   1.488       .  S
C1820      H1832   1.084       .  S
C1821      C1822   1.405       .  A
C1821      C1826   1.406       .  A
C1822      C1823   1.403       .  A
C1822      H1833   1.083       .  S
C1823      C1824   1.406       .  A
C1823      H1834   1.083       .  S
C1824      C1825   1.404       .  A
C1825      C1826   1.396       .  A
C1825      H1835   1.083       .  S
C1826      H1836   1.082       .  S
C1837      C1838   1.404       .  A
C1837      C1842   1.404       .  A
C1838      C1839   1.402       .  A
C1838      H1851   1.083       .  S
C1839      C1840   1.405       .  A
C1839      H1852   1.083       .  S
C1840      C1841   1.407       .  A
C1840      C1843   1.488       .  S
C1841      C1842   1.395       .  A
C1841      H1853   1.081       .  S
C1842      H1854   1.083       .  S
C1843      C1844   1.349       .  D
C1843      H1855   1.084       .  S
C1844      C1845   1.488       .  S
C1844      H1856   1.085       .  S
C1845      C1846   1.403       .  A
C1845      C1850   1.410       .  A
C1846      C1847   1.395       .  A
C1846      H1857   1.084       .  S
C1847      C1848   1.404       .  A
C1847      H1858   1.083       .  S
C1848      C1849   1.404       .  A
C1849      C1850   1.402       .  A
C1849      H1859   1.083       .  S
C1850      H1860   1.080       .  S
C1861      C1862   1.403       .  A
C1861      C1866   1.405       .  A
C1862      C1863   1.394       .  A
C1862      H1875   1.083       .  S
C1863      C1864   1.404       .  A
C1863      H1876   1.084       .  S
C1864      C1865   1.411       .  A
C1864      C1867   1.490       .  S
C1865      C1866   1.405       .  A
C1865      H1877   1.081       .  S
C1866      H1878   1.083       .  S
C1867      C1868   1.349       .  D
C1867      H1879   1.086       .  S
C1868      C1869   1.491       .  S
C1868      H1880   1.084       .  S
C1869      C1870   1.406       .  A
C1869      C1874   1.407       .  A
C1870      C1871   1.404       .  A
C1870      H1881   1.083       .  S
C1871      C1872   1.406       .  A
C1871      H1882   1.083       .  S
C1872      C1873   1.403       .  A
C1873      C1874   1.395       .  A
C1873      H1883   1.083       .  S
C1874      H1884   1.082       .  S
C1885      C1886   1.406       .  A
C1885      C1890   1.405       .  A
C1886      C1887   1.404       .  A
C1886      H1899   1.083       .  S
C1887      C1888   1.406       .  A
C1887      H1900   1.083       .  S
C1888      C1889   1.409       .  A
C1888      C1891   1.495       .  S
C1889      C1890   1.399       .  A
C1889      H1901   1.082       .  S
C1890      H1902   1.083       .  S
C1891      C1892   1.352   1_546  D
C1891      H1903   1.083   1_545  S
C1892      C1893   1.496       .  S
C1892      H1904   1.086   1_565  S
C1893      C1894   1.406       .  A
C1893      C1898   1.411       .  A
C1894      C1895   1.397       .  A
C1894      H1905   1.083       .  S
C1895      C1896   1.402       .  A
C1895      H1906   1.083       .  S
C1896      C1897   1.406       .  A
C1897      C1898   1.406       .  A
C1897      H1907   1.083       .  S
C1898      H1908   1.080   1_554  S
C1909      C1910   1.404       .  A
C1909      C1914   1.404       .  A
C1910      C1911   1.403       .  A
C1910      H1923   1.083       .  S
C1911      C1912   1.407       .  A
C1911      H1924   1.083       .  S
C1912      C1913   1.409       .  A
C1912      C1915   1.494       .  S
C1913      C1914   1.396       .  A
C1913      H1925   1.081       .  S
C1914      H1926   1.083       .  S
C1915      C1916   1.350       .  D
C1915      H1927   1.083       .  S
C1916      C1917   1.493       .  S
C1916      H1928   1.084       .  S
C1917      C1918   1.404       .  A
C1917      C1922   1.412       .  A
C1918      C1919   1.394       .  A
C1918      H1929   1.084       .  S
C1919      C1920   1.403       .  A
C1919      H1930   1.083       .  S
C1920      C1921   1.405       .  A
C1921      C1922   1.406       .  A
C1921      H1931   1.083       .  S
C1922      H1932   1.080       .  S
C1933      C1934   1.405       .  A
C1933      C1938   1.404       .  A
C1934      C1935   1.400       .  A
C1934      H1947   1.083       .  S
C1935      C1936   1.406       .  A
C1935      H1948   1.083       .  S
C1936      C1937   1.410       .  A
C1936      C1939   1.495       .  S
C1937      C1938   1.402       .  A
C1937      H1949   1.080       .  S
C1938      H1950   1.083       .  S
C1939      C1940   1.351       .  D
C1939      H1951   1.084       .  S
C1940      C1941   1.494       .  S
C1940      H1952   1.084       .  S
C1941      C1942   1.405       .  A
C1941      C1946   1.410       .  A
C1942      C1943   1.400       .  A
C1942      H1953   1.083       .  S
C1943      C1944   1.405       .  A
C1943      H1954   1.083       .  S
C1944      C1945   1.406       .  A
C1945      C1946   1.403       .  A
C1945      H1955   1.083       .  S
C1946      H1956   1.081       .  S
C1957      C1958   1.405       .  A
C1957      C1962   1.404       .  A
C1958      C1959   1.398       .  A
C1958      H1971   1.083       .  S
C1959      C1960   1.404       .  A
C1959      H1972   1.083       .  S
C1960      C1961   1.410       .  A
C1960      C1963   1.491       .  S
C1961      C1962   1.401       .  A
C1961      H1973   1.081       .  S
C1962      H1974   1.083   1_554  S
C1963      C1964   1.349       .  D
C1963      H1975   1.084       .  S
C1964      C1965   1.493       .  S
C1964      H1976   1.085       .  S
C1965      C1966   1.404       .  A
C1965      C1970   1.411       .  A
C1966      C1967   1.397       .  A
C1966      H1977   1.083       .  S
C1967      C1968   1.404       .  A
C1967      H1978   1.083       .  S
C1968      C1969   1.404       .  A
C1969      C1970   1.403       .  A
C1969      H1979   1.083       .  S
C1970      H1980   1.080       .  S
C1981      C1982   1.403       .  A
C1981      C1986   1.406       .  A
C1982      C1983   1.395       .  A
C1982      H1995   1.083       .  S
C1983      C1984   1.403       .  A
C1983      H1996   1.084       .  S
C1984      C1985   1.409       .  A
C1984      C1987   1.488       .  S
C1985      C1986   1.404       .  A
C1985      H1997   1.081       .  S
C1986      H1998   1.083       .  S
C1987      C1988   1.349       .  D
C1987      H1999   1.085       .  S
C1988      C1989   1.490       .  S
C1988      H2000   1.084       .  S
C1989      C1990   1.406       .  A
C1989      C1994   1.407       .  A
C1990      C1991   1.404       .  A
C1990      H2001   1.083       .  S
C1991      C1992   1.405       .  A
C1991      H2002   1.083       .  S
C1992      C1993   1.404       .  A
C1993      C1994   1.394       .  A
C1993      H2003   1.083       .  S
C1994      H2004   1.082       .  S
C2005      C2006   1.405       .  A
C2005      C2010   1.405       .  A
C2006      C2007   1.403       .  A
C2006      H2019   1.083       .  S
C2007      C2008   1.404       .  A
C2007      H2020   1.083       .  S
C2008      C2009   1.409       .  A
C2008      C2011   1.493       .  S
C2009      C2010   1.399       .  A
C2009      H2021   1.082       .  S
C2010      H2022   1.083       .  S
C2011      C2012   1.349       .  D
C2011      H2023   1.083       .  S
C2012      C2013   1.493       .  S
C2012      H2024   1.086       .  S
C2013      C2014   1.403       .  A
C2013      C2018   1.412       .  A
C2014      C2015   1.393       .  A
C2014      H2025   1.083       .  S
C2015      C2016   1.402       .  A
C2015      H2026   1.083       .  S
C2016      C2017   1.407       .  A
C2017      C2018   1.408       .  A
C2017      H2027   1.083       .  S
C2018      H2028   1.080       .  S
C2029      C2030   1.404       .  A
C2029      C2034   1.405       .  A
C2030      C2031   1.393       .  A
C2030      H2043   1.083       .  S
C2031      C2032   1.401       .  A
C2031      H2044   1.084       .  S
C2032      C2033   1.409       .  A
C2032      C2035   1.482       .  S
C2033      C2034   1.403       .  A
C2033      H2045   1.082       .  S
C2034      H2046   1.083       .  S
C2035      C2036   1.346       .  D
C2035      H2047   1.085       .  S
C2036      C2037   1.486       .  S
C2036      H2048   1.085       .  S
C2037      C2038   1.404       .  A
C2037      C2042   1.407       .  A
C2038      C2039   1.401       .  A
C2038      H2049   1.083       .  S
C2039      C2040   1.404       .  A
C2039      H2050   1.083       .  S
C2040      C2041   1.404       .  A
C2041      C2042   1.394       .  A
C2041      H2051   1.083       .  S
C2042      H2052   1.082       .  S
C2053      C2054   1.405       .  A
C2053      C2058   1.404       .  A
C2054      C2055   1.396       .  A
C2054      H2067   1.083       .  S
C2055      C2056   1.403       .  A
C2055      H2068   1.083       .  S
C2056      C2057   1.410   1_565  A
C2056      C2059   1.489       .  S
C2057      C2058   1.401   1_545  A
C2057      H2069   1.081       .  S
C2058      H2070   1.083   1_565  S
C2059      C2060   1.346   1_565  D
C2059      H2071   1.086       .  S
C2060      C2061   1.487       .  S
C2060      H2072   1.085       .  S
C2061      C2062   1.402       .  A
C2061      C2066   1.409       .  A
C2062      C2063   1.397       .  A
C2062      H2073   1.083       .  S
C2063      C2064   1.405       .  A
C2063      H2074   1.083       .  S
C2064      C2065   1.404       .  A
C2065      C2066   1.401       .  A
C2065      H2075   1.083       .  S
C2066      H2076   1.082   1_545  S
C2077      C2078   1.405       .  A
C2077      C2082   1.405       .  A
C2078      C2079   1.401       .  A
C2078      H2091   1.083       .  S
C2079      C2080   1.405       .  A
C2079      H2092   1.083       .  S
C2080      C2081   1.410       .  A
C2080      C2083   1.495   1_556  S
C2081      C2082   1.402       .  A
C2081      H2093   1.081   1_565  S
C2082      H2094   1.083       .  S
C2083      C2084   1.351   1_565  D
C2083      H2095   1.083       .  S
C2084      C2085   1.497       .  S
C2084      H2096   1.085   1_554  S
C2085      C2086   1.405       .  A
C2085      C2090   1.412       .  A
C2086      C2087   1.397       .  A
C2086      H2097   1.083       .  S
C2087      C2088   1.403       .  A
C2087      H2098   1.083       .  S
C2088      C2089   1.406       .  A
C2089      C2090   1.405       .  A
C2089      H2099   1.083       .  S
C2090      H2100   1.080   1_545  S
C2101      C2102   1.402       .  A
C2101      C2106   1.406       .  A
C2102      C2103   1.392       .  A
C2102      H2115   1.083       .  S
C2103      C2104   1.403       .  A
C2103      H2116   1.084       .  S
C2104      C2105   1.411       .  A
C2104      C2107   1.491       .  S
C2105      C2106   1.407       .  A
C2105      H2117   1.080       .  S
C2106      H2118   1.083       .  S
C2107      C2108   1.349       .  D
C2107      H2119   1.086       .  S
C2108      C2109   1.491       .  S
C2108      H2120   1.084       .  S
C2109      C2110   1.406       .  A
C2109      C2114   1.407       .  A
C2110      C2111   1.405       .  A
C2110      H2121   1.083       .  S
C2111      C2112   1.406       .  A
C2111      H2122   1.083       .  S
C2112      C2113   1.404       .  A
C2113      C2114   1.394       .  A
C2113      H2123   1.083       .  S
C2114      H2124   1.082       .  S
C2125      C2126   1.402       .  A
C2125      C2130   1.406       .  A
C2126      C2127   1.393       .  A
C2126      H2139   1.083       .  S
C2127      C2128   1.404       .  A
C2127      H2140   1.084       .  S
C2128      C2129   1.411       .  A
C2128      C2131   1.492       .  S
C2129      C2130   1.406       .  A
C2129      H2141   1.080       .  S
C2130      H2142   1.083       .  S
C2131      C2132   1.350       .  D
C2131      H2143   1.085       .  S
C2132      C2133   1.494       .  S
C2132      H2144   1.083       .  S
C2133      C2134   1.405       .  A
C2133      C2138   1.409       .  A
C2134      C2135   1.404       .  A
C2134      H2145   1.083       .  S
C2135      C2136   1.406       .  A
C2135      H2146   1.083       .  S
C2136      C2137   1.404       .  A
C2137      C2138   1.397       .  A
C2137      H2147   1.083       .  S
C2138      H2148   1.081       .  S
C2149      C2150   1.404       .  A
C2149      C2154   1.404       .  A
C2150      C2151   1.396       .  A
C2150      H2163   1.083       .  S
C2151      C2152   1.403       .  A
C2151      H2164   1.083       .  S
C2152      C2153   1.410       .  A
C2152      C2155   1.489       .  S
C2153      C2154   1.402       .  A
C2153      H2165   1.081       .  S
C2154      H2166   1.083       .  S
C2155      C2156   1.347       .  D
C2155      H2167   1.084       .  S
C2156      C2157   1.489       .  S
C2156      H2168   1.085       .  S
C2157      C2158   1.403       .  A
C2157      C2162   1.411       .  A
C2158      C2159   1.396       .  A
C2158      H2169   1.083       .  S
C2159      C2160   1.404       .  A
C2159      H2170   1.083       .  S
C2160      C2161   1.404       .  A
C2161      C2162   1.401       .  A
C2161      H2171   1.083       .  S
C2162      H2172   1.081       .  S
C2173      C2174   1.404       .  A
C2173      C2178   1.405       .  A
C2174      C2175   1.400       .  A
C2174      H2187   1.083       .  S
C2175      C2176   1.405       .  A
C2175      H2188   1.083       .  S
C2176      C2177   1.409       .  A
C2176      C2179   1.492       .  S
C2177      C2178   1.401       .  A
C2177      H2189   1.081       .  S
C2178      H2190   1.083       .  S
C2179      C2180   1.350       .  D
C2179      H2191   1.085       .  S
C2180      C2181   1.493       .  S
C2180      H2192   1.085       .  S
C2181      C2182   1.405       .  A
C2181      C2186   1.409       .  A
C2182      C2183   1.400       .  A
C2182      H2193   1.084       .  S
C2183      C2184   1.405       .  A
C2183      H2194   1.083       .  S
C2184      C2185   1.405       .  A
C2185      C2186   1.401       .  A
C2185      H2195   1.083       .  S
C2186      H2196   1.081       .  S
