geometry optimzed in LAMMPS
_audit_creation_date              2020-12-01 
_audit_creation_method            'lammps2cif' 
_symmetry_space_group_name_H-M    'P1' 
_symmetry_Int_Tables_number       1 
_symmetry_cell_setting            triclinic 
loop_ 
_symmetry_equiv_pos_as_xyz 
  x,y,z 
_cell_length_a                    43.25794736 
_cell_length_b                    43.309767753316336 
_cell_length_c                    59.36249661935285 
_cell_angle_alpha                 89.88256879956063 
_cell_angle_beta                  90.35371250748872 
_cell_angle_gamma                 119.94191305908886 
loop_ 
_atom_site_label 
_atom_site_type_symbol 
_atom_site_fract_x 
_atom_site_fract_y 
_atom_site_fract_z 
_atom_site_charge 
O1          O  0.41452802  0.24283597  0.07863979    -0.74200
O2          O  0.32602722  0.24285325  0.08260603    -0.74300
O3          O  0.37847807  0.26368117  0.05152510    -0.74300
O4          O  0.36263446  0.22055167  0.10936121    -0.74400
O5          O  0.39050148  0.27417822  0.12553450    -0.74300
O6          O  0.40735553  0.31814240  0.06666186    -0.74300
O7          O  0.35490270  0.29700951  0.09800055    -0.74200
O8          O  0.44241759  0.29689196  0.09434949    -0.74300
Ni9        Ni  0.36917597  0.24058173  0.07999570     1.25400
Ni10       Ni  0.39956803  0.29846441  0.09678365     1.25400
C11         C  0.44306517  0.27019948  0.08579558     0.88000
C12         C  0.32609996  0.27038344  0.09065459     0.87900
C13         C  0.39688556  0.29751379  0.04939463     0.87900
C14         C  0.37545126  0.24002296  0.12689589     0.88100
O15         O  0.32944810  0.24147163  0.92886228    -0.74200
O16         O  0.41798540  0.24207661  0.92098152    -0.74300
O17         O  0.38910751  0.26271935  0.95387564    -0.74300
O18         O  0.35702130  0.21932186  0.89635805    -0.74400
O19         O  0.38141808  0.27275113  0.88013177    -0.74300
O20         O  0.41209411  0.31703942  0.93888838    -0.74300
O21         O  0.44179695  0.29642375  0.90607184    -0.74200
O22         O  0.35377281  0.29520732  0.91290488    -0.74300
Ni23       Ni  0.37267259  0.23951146  0.92554865     1.25400
Ni24       Ni  0.39825791  0.29725662  0.90884317     1.25400
C25         C  0.32733975  0.26857681  0.92219700     0.88000
C26         C  0.44477120  0.26986786  0.91262379     0.87900
C27         C  0.40480286  0.29656578  0.95608367     0.87900
C28         C  0.36275829  0.23852555  0.87881658     0.88100
O29         O  0.10776725  0.30561887  0.07868951    -0.74200
O30         O  0.19703871  0.30685544  0.08276015    -0.74300
O31         O  0.14444172  0.28611103  0.05144346    -0.74300
O32         O  0.16020070  0.32804693  0.10960675    -0.74400
O33         O  0.13295834  0.27437997  0.12559314    -0.74300
O34         O  0.11615827  0.23145930  0.06623047    -0.74300
O35         O  0.16866586  0.25246693  0.09779186    -0.74200
O36         O  0.08065817  0.25155472  0.09420237    -0.74300
Ni37       Ni  0.15351603  0.30856720  0.08011388     1.25400
Ni38       Ni  0.12380922  0.25053857  0.09657606     1.25400
C39         C  0.07944272  0.27806051  0.08575723     0.88000
C40         C  0.19725489  0.27931433  0.09061143     0.87900
C41         C  0.12678144  0.25230312  0.04907875     0.87900
C42         C  0.14802827  0.30854054  0.12712659     0.88100
O43         O  0.19775938  0.30458147  0.92811529    -0.74200
O44         O  0.11069829  0.30711964  0.91958613    -0.74300
O45         O  0.13889717  0.28592583  0.95288444    -0.74300
O46         O  0.17109827  0.32742511  0.89505238    -0.74400
O47         O  0.14459449  0.27352240  0.87927737    -0.74300
O48         O  0.11421406  0.23117802  0.93828488    -0.74300
O49         O  0.08519539  0.25235002  0.90514664    -0.74200
O50         O  0.17178661  0.25074173  0.91228079    -0.74300
Ni51       Ni  0.15540733  0.30820565  0.92440104     1.25400
Ni52       Ni  0.12790984  0.25004861  0.90811960     1.25400
C53         C  0.19888561  0.27691131  0.92158460     0.88000
C54         C  0.08319107  0.27947751  0.91152852     0.87900
C55         C  0.12238760  0.25211497  0.95531313     0.87900
C56         C  0.16427196  0.30758414  0.87770724     0.88100
O57         O  0.29433619  0.20542106  0.74536332    -0.74200
O58         O  0.29491359  0.11722421  0.74991647    -0.74300
O59         O  0.27431787  0.14897965  0.71834051    -0.74300
O60         O  0.31646242  0.17580602  0.77666260    -0.74400
O61         O  0.26262394  0.14989919  0.79235251    -0.74300
O62         O  0.21959830  0.12310127  0.73293591    -0.74300
O63         O  0.24051325  0.09165424  0.76479151    -0.74200
O64         O  0.24010214  0.17907068  0.76058825    -0.74300
Ni65       Ni  0.29691595  0.16251680  0.74707810     1.25400
Ni66       Ni  0.23878913  0.13476387  0.76329860     1.25400
C67         C  0.26674427  0.20647249  0.75206898     0.88000
C68         C  0.26734012  0.08964016  0.75776703     0.87900
C69         C  0.24047843  0.13359392  0.71586018     0.87900
C70         C  0.29679160  0.16921595  0.79400382     0.88100
O71         O  0.29091951  0.11853132  0.59431003    -0.74200
O72         O  0.29290343  0.20762085  0.58647824    -0.74300
O73         O  0.27229652  0.15841245  0.61956324    -0.74300
O74         O  0.31285392  0.16785377  0.56148386    -0.74400
O75         O  0.25868593  0.13974256  0.54592199    -0.74300
O76         O  0.21723012  0.12820705  0.60520476    -0.74300
O77         O  0.23794528  0.17827301  0.57208450    -0.74200
O78         O  0.23656867  0.09012499  0.57891857    -0.74300
Ni79       Ni  0.29414532  0.16421210  0.59095721     1.25400
Ni80       Ni  0.23565628  0.13321892  0.57491993     1.25400
C81         C  0.26330637  0.08962756  0.58779264     0.88000
C82         C  0.26518379  0.20743495  0.57845775     0.87900
C83         C  0.23848858  0.14112136  0.62216288     0.87900
C84         C  0.29281161  0.15454661  0.54416107     0.88100
O85         O  0.23155832  0.33630126  0.74360283    -0.74200
O86         O  0.23124562  0.42462069  0.74860127    -0.74300
O87         O  0.25173390  0.39340108  0.71689346    -0.74300
O88         O  0.20977028  0.36583124  0.77493059    -0.74400
O89         O  0.26371211  0.39148871  0.79086661    -0.74300
O90         O  0.30648109  0.41899652  0.73187066    -0.74300
O91         O  0.28576842  0.44989885  0.76373619    -0.74200
O92         O  0.28590027  0.36247759  0.75910010    -0.74300
Ni93       Ni  0.22916036  0.37933337  0.74547247     1.25400
Ni94       Ni  0.28738041  0.40680719  0.76201786     1.25400
C95         C  0.25908924  0.33510748  0.75053609     0.88000
C96         C  0.25888122  0.45201593  0.75673346     0.87900
C97         C  0.28559991  0.40923522  0.71466719     0.87900
C98         C  0.22954398  0.37255371  0.79239155     0.88100
O99         O  0.23132115  0.42527639  0.59314427    -0.74200
O100        O  0.23224044  0.33775331  0.58563023    -0.74300
O101        O  0.25217415  0.38709253  0.61857951    -0.74300
O102        O  0.21039921  0.37595149  0.56042430    -0.74400
O103        O  0.26428184  0.40549620  0.54499758    -0.74300
O104        O  0.30690975  0.41795290  0.60417602    -0.74300
O105        O  0.28686407  0.36795020  0.57116132    -0.74200
O106        O  0.28562321  0.45487555  0.57809465    -0.74300
Ni107      Ni  0.22964691  0.38035142  0.58993636     1.25400
Ni108      Ni  0.28786050  0.41247575  0.57397498     1.25400
C109        C  0.25852016  0.45452746  0.58685087     0.88000
C110        C  0.26016047  0.33858353  0.57768479     0.87900
C111        C  0.28603405  0.40492982  0.62112351     0.87900
C112        C  0.23008693  0.39000645  0.54319699     0.88100
O113        O  0.11263067  0.34368938  0.25959434    -0.74200
O114        O  0.20207508  0.43117665  0.25539513    -0.74300
O115        O  0.14935617  0.40042864  0.28642265    -0.74300
O116        O  0.16464477  0.37224216  0.22878336    -0.74400
O117        O  0.13780028  0.39896143  0.21230368    -0.74300
O118        O  0.12095035  0.42642461  0.27094381    -0.74300
O119        O  0.17388529  0.45720045  0.23984052    -0.74200
O120        O  0.08560758  0.37038945  0.24330493    -0.74300
Ni121      Ni  0.15841692  0.38620356  0.25807603     1.25400
Ni122      Ni  0.12884341  0.41441673  0.24094117     1.25400
C123        C  0.08429623  0.34293455  0.25226208     0.88000
C124        C  0.20247605  0.45892225  0.24734627     0.87900
C125        C  0.13104452  0.41603153  0.28833038     0.87900
C126        C  0.15217357  0.37919281  0.21113490     0.88100
O127        O  0.19566341  0.42786128  0.40832318    -0.74200
O128        O  0.10817950  0.33944339  0.41739035    -0.74300
O129        O  0.13573189  0.38812476  0.38385168    -0.74300
O130        O  0.16958133  0.37937271  0.44145367    -0.74400
O131        O  0.14373664  0.40736729  0.45731104    -0.74300
O132        O  0.11259096  0.41958424  0.39841866    -0.74300
O133        O  0.08346487  0.36956341  0.43158635    -0.74200
O134        O  0.17100229  0.45693619  0.42424100    -0.74300
Ni135      Ni  0.15299281  0.38250846  0.41223349     1.25400
Ni136      Ni  0.12666490  0.41425702  0.42851715     1.25400
C137        C  0.19758526  0.45697810  0.41492366     0.88000
C138        C  0.08106045  0.34007487  0.42555484     0.87900
C139        C  0.11993726  0.40620207  0.38140953     0.87900
C140        C  0.16333429  0.39282382  0.45875438     0.88100
O141        O  0.42033667  0.21254086  0.25929052    -0.74200
O142        O  0.33182131  0.12393835  0.25597037    -0.74300
O143        O  0.38501564  0.15683023  0.28688771    -0.74300
O144        O  0.36753348  0.18155935  0.22871905    -0.74400
O145        O  0.39539483  0.15563856  0.21289075    -0.74300
O146        O  0.41356113  0.13057181  0.27232915    -0.74300
O147        O  0.36053833  0.09821124  0.24103261    -0.74200
O148        O  0.44809978  0.18593261  0.24414500    -0.74300
Ni149      Ni  0.37498115  0.16940926  0.25822771     1.25400
Ni150      Ni  0.40519693  0.14145053  0.24196122     1.25400
C151        C  0.44887864  0.21345435  0.25250865     0.88000
C152        C  0.33182212  0.09629845  0.24818909     0.87900
C153        C  0.40346574  0.14144894  0.28937654     0.87900
C154        C  0.37977544  0.17426376  0.21125490     0.88100
O155        O  0.32966923  0.12070949  0.40905512    -0.74200
O156        O  0.41587400  0.21023425  0.41908361    -0.74300
O157        O  0.38960695  0.16218446  0.38527503    -0.74300
O158        O  0.35452234  0.16881961  0.44262845    -0.74400
O159        O  0.38142636  0.14173627  0.45857964    -0.74300
O160        O  0.41388102  0.13158289  0.39984666    -0.74300
O161        O  0.44161244  0.18091217  0.43333714    -0.74200
O162        O  0.35532621  0.09255157  0.42515417    -0.74300
Ni163      Ni  0.37161384  0.16660097  0.41350342     1.25400
Ni164      Ni  0.39906759  0.13578557  0.42986951     1.25400
C165        C  0.32839301  0.09182913  0.41563049     0.88000
C166        C  0.44343799  0.21010507  0.42716062     0.87900
C167        C  0.40674083  0.14544229  0.38288947     0.87900
C168        C  0.36125757  0.15564694  0.45998267     0.88100
C169        C  0.43527240  0.17232114  0.32375705    -0.21100
C170        C  0.41500178  0.13976154  0.31248438    -0.09100
C171        C  0.39906682  0.10798571  0.32496184     0.29700
C172        C  0.40034535  0.10936249  0.34864921    -0.21100
C173        C  0.41728992  0.14242589  0.35983828    -0.09200
C174        C  0.43631817  0.17373985  0.34721335     0.29700
F175        F  0.45263772  0.20603651  0.35756630    -0.19700
H176        H  0.44748101  0.19708443  0.31437776     0.18100
H177        H  0.38499998  0.08501923  0.35813487     0.18100
F178        F  0.37900789  0.07622175  0.31443797    -0.19700
C179        C  0.26391049  0.99225786  0.41381358    -0.21100
C180        C  0.23104317  0.49118783  0.41243050    -0.09100
C181        C  0.23053166  0.02330909  0.41023053     0.29700
C182        C  0.26239425  0.05592246  0.41028611    -0.21100
C183        C  0.29524990  0.05714542  0.41288782    -0.09200
C184        C  0.29576236  0.02487218  0.41422321     0.29700
F185        F  0.32695356  0.02471168  0.41629706    -0.19700
H186        H  0.26490782  0.46786261  0.41551739     0.18100
H187        H  0.26123273  0.08028263  0.40913123     0.18100
F188        F  0.19921264  0.52324393  0.40826693    -0.19700
C189        C  0.51013123  0.24194993  0.42834801    -0.21100
C190        C  0.47843476  0.24359906  0.42847118    -0.09100
C191        C  0.48094703  0.27724446  0.42872024     0.29700
C192        C  0.01440606  0.30835246  0.42841759    -0.21100
C193        C  0.04607208  0.30668389  0.42748318    -0.09200
C194        C  0.04355230  0.27302267  0.42768330     0.29700
F195        F  0.07330991  0.27001688  0.42723665    -0.19700
H196        H  0.50908034  0.21643625  0.42811820     0.18100
H197        H  0.01545720  0.33386672  0.42832599     0.18100
F198        F  0.45114767  0.28016745  0.42925384    -0.19700
C199        C  0.30052471  0.02991695  0.24912969    -0.21100
C200        C  0.29862180  0.06135339  0.24772627    -0.09100
C201        C  0.26504246  0.05878250  0.24588090     0.29700
C202        C  0.23408827  0.02536140  0.24542193    -0.21100
C203        C  0.23589208  0.49385821  0.24714491    -0.09200
C204        C  0.26954138  0.99648837  0.24904964     0.29700
F205        F  0.27263437  0.46687263  0.25058608    -0.19700
H206        H  0.32612822  0.03122131  0.25062512     0.18100
H207        H  0.20854767  0.52420019  0.24400863     0.18100
F208        F  0.26210732  0.08846817  0.24407250    -0.19700
C209        C  0.04798688  0.27715145  0.25661740    -0.21100
C210        C  0.04950900  0.31003322  0.25386503    -0.09100
C211        C  0.01748716  0.31099987  0.25199012     0.29700
C212        C  0.48471803  0.27948143  0.25227774    -0.21100
C213        C  0.48332773  0.24658938  0.25409881    -0.09200
C214        C  0.51521375  0.24561525  0.25659297     0.29700
F215        F  0.51474963  0.21421290  0.25906644    -0.19700
H216        H  0.07220689  0.27574199  0.25822474     0.18100
H217        H  0.46044882  0.28074247  0.25039888     0.18100
F218        F  0.01770045  0.34231386  0.24978405    -0.19700
C219        C  0.09424712  0.38567455  0.32113793    -0.21100
C220        C  0.11893647  0.41799952  0.31108363    -0.09100
C221        C  0.13767422  0.44848859  0.32458046     0.29700
C222        C  0.13406447  0.44564074  0.34811748    -0.21100
C223        C  0.11216778  0.41231749  0.35821895    -0.09200
C224        C  0.09100097  0.38272629  0.34452083     0.29700
F225        F  0.07014835  0.35013837  0.35384409    -0.19700
H226        H  0.07999414  0.36181421  0.31096377     0.18100
H227        H  0.15122340  0.46852362  0.35847101     0.18100
F228        F  0.16219276  0.47986177  0.31528152    -0.19700
C229        C  0.16032367  0.38126172  0.50015043    -0.21100
C230        C  0.18025138  0.39229999  0.48033615    -0.09100
C231        C  0.21660113  0.40219055  0.48109052     0.29700
C232        C  0.23265504  0.40105665  0.50142262    -0.21100
C233        C  0.21266865  0.38951371  0.52134374    -0.09200
C234        C  0.17610418  0.37946143  0.52040572     0.29700
F235        F  0.15547220  0.36839295  0.53910726    -0.19700
H236        H  0.13232549  0.37345777  0.49986974     0.18100
H237        H  0.26077084  0.40936764  0.50156880     0.18100
F238        F  0.23687708  0.41399012  0.46224411    -0.19700
C239        C  0.29466278  0.38136623  0.65699591    -0.21100
C240        C  0.29986661  0.41087267  0.64431290    -0.09100
C241        C  0.30819606  0.44277249  0.65543887     0.29700
C242        C  0.30768147  0.44382770  0.67905801    -0.21100
C243        C  0.29935033  0.41322508  0.69164269    -0.09200
C244        C  0.29462807  0.38255692  0.68050724     0.29700
F245        F  0.28604323  0.35247196  0.69232807    -0.17300
H246        H  0.28749361  0.35640398  0.64868560     0.18100
H247        H  0.31057501  0.46737738  0.68736855     0.18100
F248        F  0.31251704  0.47141134  0.64348943    -0.19700
C249        C  0.22906070  0.02323019  0.58846666    -0.21100
C250        C  0.26206027  0.05506965  0.58995623    -0.09100
C251        C  0.29348761  0.05325346  0.59208299     0.29700
C252        C  0.29189969  0.02028755  0.59162257    -0.21100
C253        C  0.25903960  0.48858550  0.58938792    -0.09200
C254        C  0.22745789  0.99022692  0.58831424     0.29700
F255        F  0.19524595  0.46017583  0.58593495    -0.19700
H256        H  0.20441689  0.02386819  0.58696658     0.18100
H257        H  0.31655147  0.51958221  0.59267507     0.18100
F258        F  0.32588608  0.08326729  0.59357434    -0.19700
C259        C  0.29571708  0.27415515  0.57814329    -0.21100
C260        C  0.26405294  0.24106913  0.57704338    -0.09100
C261        C  0.23121849  0.24050072  0.57548417     0.29700
C262        C  0.23026184  0.27228145  0.57539899    -0.21100
C263        C  0.26186625  0.30530991  0.57657474    -0.09200
C264        C  0.29475246  0.30599055  0.57778251     0.29700
F265        F  0.32593195  0.33731756  0.57953922    -0.19700
H266        H  0.32130475  0.27541965  0.57944847     0.18100
H267        H  0.20463856  0.27101903  0.57453453     0.18100
F268        F  0.19981733  0.20925436  0.57482211    -0.19700
C269        C  0.34573155  0.16286265  0.52217956    -0.21100
C270        C  0.31002496  0.15546235  0.52228179    -0.09100
C271        C  0.29154459  0.14810018  0.50161701     0.29700
C272        C  0.30863753  0.14862856  0.48148420    -0.21100
C273        C  0.34412297  0.15561068  0.48154259    -0.09200
C274        C  0.36249365  0.16261833  0.50211380     0.29700
F275        F  0.39693516  0.17014468  0.50277559    -0.19700
H276        H  0.36072860  0.16843894  0.53774662     0.18100
H277        H  0.29389012  0.14297212  0.46580020     0.18100
F278        F  0.25711375  0.14058680  0.50076085    -0.19700
C279        C  0.23219328  0.02313890  0.75925509    -0.21100
C280        C  0.26560096  0.05459804  0.75827616    -0.09100
C281        C  0.29661902  0.05187671  0.75733680     0.29700
C282        C  0.29407237  0.01840609  0.75720428    -0.21100
C283        C  0.26064661  0.48698759  0.75766209    -0.09200
C284        C  0.22963863  0.98965488  0.75879465     0.29700
F285        F  0.19691291  0.46000203  0.75978961    -0.19700
H286        H  0.20783193  0.02440117  0.76000085     0.18100
H287        H  0.31839870  0.51708705  0.75633961     0.18100
F288        F  0.32942824  0.08145860  0.75675361    -0.19700
C289        C  0.23163347  0.23757795  0.75005940    -0.21100
C290        C  0.26504428  0.23944474  0.75004619    -0.09100
C291        C  0.29620900  0.27285891  0.74884940     0.29700
C292        C  0.29385152  0.30379086  0.74843494    -0.21100
C293        C  0.26049080  0.30195884  0.74899669    -0.09200
C294        C  0.22927313  0.26852304  0.74942804     0.29700
F295        F  0.19660782  0.26570809  0.75028535    -0.19700
H296        H  0.20721591  0.21207453  0.75081630     0.18100
H297        H  0.31827468  0.32932182  0.74798844     0.18100
F298        F  0.32895670  0.27579865  0.74902587    -0.19700
C299        C  0.21450790  0.10073345  0.67973605    -0.21100
C300        C  0.22695143  0.13171752  0.69278622    -0.09100
C301        C  0.23524494  0.16394736  0.68214014     0.29700
C302        C  0.23458239  0.16591212  0.65867775    -0.21100
C303        C  0.22529488  0.13572796  0.64545794    -0.09200
C304        C  0.21345552  0.10265575  0.65611507     0.29700
F305        F  0.20511912  0.07321865  0.64367730    -0.19700
H306        H  0.20871279  0.07586152  0.68763325     0.18100
H307        H  0.24439320  0.19169120  0.65077389     0.18100
F308        F  0.24767443  0.19437699  0.69437505    -0.19700
C309        C  0.22961653  0.37202072  0.83469315    -0.21100
C310        C  0.21231464  0.35671429  0.81426822    -0.09100
C311        C  0.17884358  0.32502095  0.81489018     0.29700
C312        C  0.16339368  0.30907638  0.83547650    -0.21100
C313        C  0.18049714  0.32462907  0.85588470    -0.09200
C314        C  0.21382177  0.35643567  0.85529048     0.29700
F315        F  0.23180628  0.37193314  0.87461831    -0.19700
H316        H  0.25541667  0.39613010  0.83473181     0.18100
H317        H  0.13790051  0.28460313  0.83545489     0.18100
F318        F  0.16143063  0.30866521  0.79558121    -0.19700
C319        C  0.15315489  0.36045470  0.14866587    -0.21100
C320        C  0.15023608  0.32651283  0.14891593    -0.09100
C321        C  0.14847529  0.31047253  0.16982913     0.29700
C322        C  0.15017003  0.32834507  0.18989715    -0.21100
C323        C  0.15268239  0.36209887  0.18957232    -0.09200
C324        C  0.15392575  0.37787467  0.16868905     0.29700
F325        F  0.15623842  0.41026563  0.16757970    -0.19700
H326        H  0.15411529  0.37336551  0.13284451     0.18100
H327        H  0.14860828  0.31531216  0.20577301     0.18100
F328        F  0.14533621  0.27772261  0.17094737    -0.19700
C329        C  0.09111251  0.24280409  0.01466096    -0.21100
C330        C  0.11743049  0.23862089  0.02591471    -0.09100
C331        C  0.14051962  0.23145871  0.01333592     0.29700
C332        C  0.13884232  0.23108979  0.98971442    -0.21100
C333        C  0.11454158  0.23843218  0.97848911    -0.09200
C334        C  0.08977645  0.24295537  0.99111640     0.29700
F335        F  0.06681121  0.25121968  0.98069933    -0.19700
H336        H  0.07377175  0.24934218  0.02409194     0.18100
H337        H  0.15887700  0.22872391  0.98022995     0.18100
F338        F  0.16713777  0.22884543  0.02375351    -0.19700
C339        C  0.01667837  0.24423473  0.90910144    -0.21100
C340        C  0.04806029  0.27770175  0.91033722    -0.09100
C341        C  0.04504201  0.30852660  0.91135118     0.29700
C342        C  0.51135294  0.30568995  0.91152349    -0.21100
C343        C  0.48002618  0.27215216  0.91104168    -0.09200
C344        C  0.48303428  0.24138978  0.90961293     0.29700
F345        F  0.45352385  0.20856156  0.90855931    -0.19700
H346        H  0.01809883  0.21999124  0.90828729     0.18100
H347        H  0.50979287  0.32984083  0.91259828     0.18100
F348        F  0.07452793  0.34138771  0.91217212    -0.19700
C349        C  0.29583729  0.30239872  0.92891213    -0.21100
C350        C  0.29413300  0.26963674  0.92481699    -0.09100
C351        C  0.26086220  0.23901001  0.92144376     0.29700
C352        C  0.22996596  0.24156283  0.92111783    -0.21100
C353        C  0.23165217  0.27459665  0.92433557    -0.09200
C354        C  0.26488728  0.30491953  0.92889391     0.29700
F355        F  0.26779697  0.33723215  0.93238350    -0.19700
H356        H  0.32134329  0.32627701  0.93171572     0.18100
H357        H  0.20471815  0.21767032  0.91777718     0.18100
F358        F  0.25838588  0.20709421  0.91705747    -0.19700
C359        C  0.36144819  0.23665336  0.83648079    -0.21100
C360        C  0.34640752  0.22039887  0.85709419    -0.09100
C361        C  0.31491651  0.18670838  0.85680859     0.29700
C362        C  0.29887217  0.17005211  0.83636690    -0.21100
C363        C  0.31419714  0.18611163  0.81577091    -0.09200
C364        C  0.34582087  0.21965662  0.81605380     0.29700
F365        F  0.36105649  0.23675930  0.79654161    -0.19700
H366        H  0.38544155  0.26252399  0.83616066     0.18100
H367        H  0.27448621  0.14450489  0.83665050     0.18100
F368        F  0.29888716  0.17021120  0.87630606    -0.19700
C369        C  0.37620530  0.19068656  0.14843429    -0.21100
C370        C  0.37454574  0.22240227  0.14855460    -0.09100
C371        C  0.37384593  0.23739721  0.16932658     0.29700
C372        C  0.37469106  0.22093746  0.18945900    -0.21100
C373        C  0.37708610  0.18961931  0.18940114    -0.09200
C374        C  0.37791959  0.17465640  0.16860470     0.29700
F375        F  0.38019952  0.14454359  0.16771760    -0.19700
H376        H  0.37717797  0.17876086  0.13263409     0.18100
H377        H  0.37430960  0.23330306  0.20520760     0.18100
F378        F  0.37209162  0.26779643  0.17021496    -0.19700
C379        C  0.50871846  0.30469710  0.08176995    -0.21100
C380        C  0.47750683  0.27157559  0.08432915    -0.09100
C381        C  0.47990628  0.24062120  0.08656025     0.29700
C382        C  0.01323363  0.24301711  0.08665133    -0.21100
C383        C  0.04460535  0.27622742  0.08438814    -0.09200
C384        C  0.04205235  0.30710046  0.08167916     0.29700
F385        F  0.07165024  0.33969193  0.07971582    -0.19700
H386        H  0.50730314  0.32886599  0.07999950     0.18100
H387        H  0.01446013  0.21880089  0.08874968     0.18100
F388        F  0.45027976  0.20835516  0.08968579    -0.19700
C389        C  0.29498818  0.30573754  0.09228345    -0.21100
C390        C  0.29292679  0.27228946  0.09110393    -0.09100
C391        C  0.25920664  0.24137808  0.09006992     0.29700
C392        C  0.22834911  0.24405455  0.09017769    -0.21100
C393        C  0.23043873  0.27750681  0.09099726    -0.09200
C394        C  0.26410767  0.30842144  0.09206929     0.29700
F395        F  0.26721903  0.34114955  0.09331332    -0.19700
H396        H  0.32063946  0.33000671  0.09306674     0.18100
H397        H  0.20268075  0.21980999  0.08929556     0.18100
F398        F  0.25594247  0.20855842  0.08925292    -0.19700
C399        C  0.43244897  0.30293437  0.01615546    -0.21100
C400        C  0.40841631  0.31124261  0.02647400    -0.09100
C401        C  0.38931431  0.32287820  0.01310713     0.29700
C402        C  0.39183002  0.32278245  0.98949896    -0.21100
C403        C  0.41309958  0.31073137  0.97920738    -0.09200
C404        C  0.43463127  0.30240792  0.99273271     0.29700
F405        F  0.45482191  0.28999213  0.98326748    -0.19700
H406        H  0.44693943  0.29337027  0.02621635     0.18100
H407        H  0.37441177  0.32847529  0.97931925     0.18100
F408        F  0.36548376  0.33049023  0.02268399    -0.19700
O409        O  0.41452802  0.74283600  0.07863982    -0.74200
O410        O  0.32602719  0.74285324  0.08260608    -0.74300
O411        O  0.37847804  0.76368122  0.05152515    -0.74300
O412        O  0.36263447  0.72055167  0.10936125    -0.74400
O413        O  0.39050150  0.77417820  0.12553455    -0.74300
O414        O  0.40735546  0.81814244  0.06666193    -0.74300
O415        O  0.35490264  0.79700946  0.09800065    -0.74200
O416        O  0.44241759  0.79689200  0.09434951    -0.74300
Ni417      Ni  0.36917596  0.74058175  0.07999575     1.25400
Ni418      Ni  0.39956801  0.79846441  0.09678371     1.25400
C419        C  0.44306518  0.77019952  0.08579560     0.88000
C420        C  0.32609991  0.77038340  0.09065466     0.87900
C421        C  0.39688549  0.79751384  0.04939469     0.87900
C422        C  0.37545127  0.74002294  0.12689593     0.88100
O423        O  0.32944815  0.74147166  0.92886233    -0.74200
O424        O  0.41798546  0.74207664  0.92098154    -0.74300
O425        O  0.38910757  0.76271938  0.95387569    -0.74300
O426        O  0.35702136  0.71932189  0.89635808    -0.74400
O427        O  0.38141810  0.77275116  0.88013181    -0.74300
O428        O  0.41209417  0.81703944  0.93888843    -0.74300
O429        O  0.44179699  0.79642377  0.90607186    -0.74200
O430        O  0.35377286  0.79520736  0.91290494    -0.74300
Ni431      Ni  0.37267265  0.73951149  0.92554869     1.25400
Ni432      Ni  0.39825796  0.79725665  0.90884321     1.25400
C433        C  0.32733980  0.76857684  0.92219705     0.88000
C434        C  0.44477125  0.76986788  0.91262379     0.87900
C435        C  0.40480292  0.79656581  0.95608372     0.87900
C436        C  0.36275835  0.73852559  0.87881661     0.88100
O437        O  0.10776722  0.80561889  0.07868953    -0.74200
O438        O  0.19703868  0.80685544  0.08276015    -0.74300
O439        O  0.14444166  0.78611106  0.05144346    -0.74300
O440        O  0.16020067  0.82804690  0.10960676    -0.74400
O441        O  0.13295828  0.77437993  0.12559314    -0.74300
O442        O  0.11615822  0.73145932  0.06623045    -0.74300
O443        O  0.16866581  0.75246691  0.09779184    -0.74200
O444        O  0.08065812  0.75155473  0.09420237    -0.74300
Ni445      Ni  0.15351599  0.80856721  0.08011389     1.25400
Ni446      Ni  0.12380917  0.75053856  0.09657605     1.25400
C447        C  0.07944268  0.77806054  0.08575723     0.88000
C448        C  0.19725486  0.77931433  0.09061142     0.87900
C449        C  0.12678137  0.75230316  0.04907874     0.87900
C450        C  0.14802824  0.80854049  0.12712660     0.88100
O451        O  0.19775935  0.80458142  0.92811528    -0.74200
O452        O  0.11069827  0.80711959  0.91958606    -0.74300
O453        O  0.13889714  0.78592582  0.95288441    -0.74300
O454        O  0.17109826  0.82742504  0.89505234    -0.74400
O455        O  0.14459451  0.77352232  0.87927735    -0.74300
O456        O  0.11421403  0.73117800  0.93828487    -0.74300
O457        O  0.08519538  0.75234996  0.90514660    -0.74200
O458        O  0.17178659  0.75074167  0.91228080    -0.74300
Ni459      Ni  0.15540731  0.80820561  0.92440100     1.25400
Ni460      Ni  0.12790984  0.75004856  0.90811958     1.25400
C461        C  0.19888560  0.77691128  0.92158461     0.88000
C462        C  0.08319105  0.77947745  0.91152845     0.87900
C463        C  0.12238756  0.75211496  0.95531312     0.87900
C464        C  0.16427197  0.80758408  0.87770721     0.88100
O465        O  0.29433627  0.70542110  0.74536332    -0.74200
O466        O  0.29491365  0.61722424  0.74991649    -0.74300
O467        O  0.27431791  0.64897964  0.71834054    -0.74300
O468        O  0.31646253  0.67580609  0.77666261    -0.74400
O469        O  0.26262405  0.64989926  0.79235254    -0.74300
O470        O  0.21959835  0.62310128  0.73293596    -0.74300
O471        O  0.24051332  0.59165429  0.76479155    -0.74200
O472        O  0.24010223  0.67907074  0.76058827    -0.74300
Ni473      Ni  0.29691603  0.66251684  0.74707811     1.25400
Ni474      Ni  0.23878922  0.63476393  0.76329863     1.25400
C475        C  0.26674435  0.70647254  0.75206898     0.88000
C476        C  0.26734017  0.58964020  0.75776706     0.87900
C477        C  0.24047846  0.63359389  0.71586021     0.87900
C478        C  0.29679171  0.66921603  0.79400384     0.88100
O479        O  0.29091948  0.61853132  0.59431001    -0.74200
O480        O  0.29290330  0.70762082  0.58647827    -0.74300
O481        O  0.27229645  0.65841240  0.61956325    -0.74300
O482        O  0.31285385  0.66785380  0.56148385    -0.74400
O483        O  0.25868586  0.63974260  0.54592199    -0.74300
O484        O  0.21723005  0.62820695  0.60520478    -0.74300
O485        O  0.23794515  0.67827296  0.57208454    -0.74200
O486        O  0.23656864  0.59012497  0.57891854    -0.74300
Ni487      Ni  0.29414524  0.66421208  0.59095722     1.25400
Ni488      Ni  0.23565621  0.63321889  0.57491994     1.25400
C489        C  0.26330635  0.58962756  0.58779260     0.88000
C490        C  0.26518365  0.70743491  0.57845779     0.87900
C491        C  0.23848852  0.64112127  0.62216290     0.87900
C492        C  0.29281153  0.65454666  0.54416106     0.88100
O493        O  0.23155835  0.83630128  0.74360283    -0.74200
O494        O  0.23124563  0.92462070  0.74860128    -0.74300
O495        O  0.25173390  0.89340109  0.71689346    -0.74300
O496        O  0.20977031  0.86583124  0.77493060    -0.74400
O497        O  0.26371215  0.89148872  0.79086661    -0.74300
O498        O  0.30648110  0.91899655  0.73187065    -0.74300
O499        O  0.28576844  0.94989886  0.76373619    -0.74200
O500        O  0.28590031  0.86247762  0.75910008    -0.74300
Ni501      Ni  0.22916038  0.87933338  0.74547248     1.25400
Ni502      Ni  0.28738044  0.90680721  0.76201785     1.25400
C503        C  0.25908928  0.83510750  0.75053608     0.88000
C504        C  0.25888124  0.95201593  0.75673347     0.87900
C505        C  0.28559991  0.90923525  0.71466719     0.87900
C506        C  0.22954402  0.87255370  0.79239154     0.88100
O507        O  0.23132113  0.92527641  0.59314429    -0.74200
O508        O  0.23224039  0.83775333  0.58563022    -0.74300
O509        O  0.25217410  0.88709252  0.61857951    -0.74300
O510        O  0.21039919  0.87595154  0.56042430    -0.74400
O511        O  0.26428183  0.90549624  0.54499759    -0.74300
O512        O  0.30690971  0.91795290  0.60417604    -0.74300
O513        O  0.28686403  0.86795021  0.57116132    -0.74200
O514        O  0.28562319  0.95487556  0.57809468    -0.74300
Ni515      Ni  0.22964687  0.88035144  0.58993636     1.25400
Ni516      Ni  0.28786048  0.91247577  0.57397499     1.25400
C517        C  0.25852015  0.95452747  0.58685091     0.88000
C518        C  0.26016042  0.83858354  0.57768478     0.87900
C519        C  0.28603400  0.90492983  0.62112351     0.87900
C520        C  0.23008692  0.89000651  0.54319700     0.88100
O521        O  0.11263063  0.84368935  0.25959435    -0.74200
O522        O  0.20207508  0.93117660  0.25539516    -0.74300
O523        O  0.14935610  0.90042859  0.28642266    -0.74300
O524        O  0.16464476  0.87224210  0.22878338    -0.74400
O525        O  0.13780026  0.89896134  0.21230369    -0.74300
O526        O  0.12095036  0.92642462  0.27094381    -0.74300
O527        O  0.17388530  0.95720039  0.23984052    -0.74200
O528        O  0.08560755  0.87038943  0.24330494    -0.74300
Ni529      Ni  0.15841689  0.88620350  0.25807605     1.25400
Ni530      Ni  0.12884340  0.91441669  0.24094117     1.25400
C531        C  0.08429620  0.84293453  0.25226209     0.88000
C532        C  0.20247605  0.95892220  0.24734629     0.87900
C533        C  0.13104450  0.91603152  0.28833038     0.87900
C534        C  0.15217355  0.87919272  0.21113493     0.88100
O535        O  0.19566340  0.92786133  0.40832320    -0.74200
O536        O  0.10817949  0.83944342  0.41739033    -0.74300
O537        O  0.13573191  0.88812483  0.38385168    -0.74300
O538        O  0.16958133  0.87937274  0.44145367    -0.74400
O539        O  0.14373665  0.90736733  0.45731104    -0.74300
O540        O  0.11259096  0.91958429  0.39841867    -0.74300
O541        O  0.08346487  0.86956344  0.43158635    -0.74200
O542        O  0.17100227  0.95693623  0.42424101    -0.74300
Ni543      Ni  0.15299281  0.88250851  0.41223349     1.25400
Ni544      Ni  0.12666489  0.91425705  0.42851715     1.25400
C545        C  0.19758524  0.95697814  0.41492366     0.88000
C546        C  0.08106044  0.84007490  0.42555483     0.87900
C547        C  0.11993728  0.90620214  0.38140954     0.87900
C548        C  0.16333430  0.89282386  0.45875437     0.88100
O549        O  0.42033669  0.71254086  0.25929056    -0.74200
O550        O  0.33182134  0.62393833  0.25597040    -0.74300
O551        O  0.38501567  0.65683021  0.28688775    -0.74300
O552        O  0.36753347  0.68155934  0.22871910    -0.74400
O553        O  0.39539482  0.65563856  0.21289078    -0.74300
O554        O  0.41356118  0.63057183  0.27232917    -0.74300
O555        O  0.36053838  0.59821124  0.24103263    -0.74200
O556        O  0.44809979  0.68593262  0.24414503    -0.74300
Ni557      Ni  0.37498117  0.66940926  0.25822775     1.25400
Ni558      Ni  0.40519696  0.64145054  0.24196125     1.25400
C559        C  0.44887866  0.71345435  0.25250868     0.88000
C560        C  0.33182216  0.59629845  0.24818911     0.87900
C561        C  0.40346578  0.64144893  0.28937657     0.87900
C562        C  0.37977541  0.67426373  0.21125494     0.88100
O563        O  0.32966920  0.62070945  0.40905513    -0.74200
O564        O  0.41587395  0.71023426  0.41908356    -0.74300
O565        O  0.38960692  0.66218439  0.38527502    -0.74300
O566        O  0.35452229  0.66881965  0.44262842    -0.74400
O567        O  0.38142632  0.64173635  0.45857965    -0.74300
O568        O  0.41388104  0.63158289  0.39984670    -0.74300
O569        O  0.44161241  0.68091223  0.43333715    -0.74200
O570        O  0.35532620  0.59255158  0.42515422    -0.74300
Ni571      Ni  0.37161379  0.66660095  0.41350339     1.25400
Ni572      Ni  0.39906757  0.63578561  0.42986954     1.25400
C573        C  0.32839300  0.59182910  0.41563053     0.88000
C574        C  0.44343793  0.71010511  0.42716061     0.87900
C575        C  0.40674084  0.64544225  0.38288949     0.87900
C576        C  0.36125753  0.65564701  0.45998266     0.88100
C577        C  0.43527254  0.67232110  0.32375707    -0.21100
C578        C  0.41500180  0.63976149  0.31248440    -0.09100
C579        C  0.39906672  0.60798565  0.32496186     0.29700
C580        C  0.40034532  0.60936250  0.34864921    -0.21100
C581        C  0.41728996  0.64242583  0.35983831    -0.09200
C582        C  0.43631832  0.67373978  0.34721338     0.29700
F583        F  0.45263799  0.70603642  0.35756634    -0.19700
H584        H  0.44748119  0.69708430  0.31437782     0.18100
H585        H  0.38499971  0.58501903  0.35813496     0.18100
F586        F  0.37900762  0.57622171  0.31443800    -0.19700
C587        C  0.26391051  0.49225784  0.41381367    -0.21100
C588        C  0.23104315  0.99118788  0.41243050    -0.09100
C589        C  0.23053167  0.52330902  0.41023049     0.29700
C590        C  0.26239424  0.55592243  0.41028609    -0.21100
C591        C  0.29524990  0.55714538  0.41288788    -0.09200
C592        C  0.29576236  0.52487215  0.41422333     0.29700
F593        F  0.32695355  0.52471165  0.41629725    -0.19700
H594        H  0.26490779  0.96786268  0.41551725     0.18100
H595        H  0.26123271  0.58028247  0.40913116     0.18100
F596        F  0.19921263  0.02324404  0.40826707    -0.19700
C597        C  0.51013116  0.74194997  0.42834800    -0.21100
C598        C  0.47843470  0.74359911  0.42847117    -0.09100
C599        C  0.48094696  0.77724451  0.42872023     0.29700
C600        C  0.01440605  0.80835252  0.42841758    -0.21100
C601        C  0.04607206  0.80668392  0.42748316    -0.09200
C602        C  0.04355226  0.77302269  0.42768329     0.29700
F603        F  0.07330984  0.77001686  0.42723665    -0.19700
H604        H  0.50908028  0.71643632  0.42811819     0.18100
H605        H  0.01545721  0.83386678  0.42832599     0.18100
F606        F  0.45114759  0.78016747  0.42925384    -0.19700
C607        C  0.30052472  0.52991695  0.24912969    -0.21100
C608        C  0.29862184  0.56135340  0.24772625    -0.09100
C609        C  0.26504252  0.55878253  0.24588084     0.29700
C610        C  0.23408830  0.52536145  0.24542185    -0.21100
C611        C  0.23589207  0.99385818  0.24714496    -0.09200
C612        C  0.26954138  0.49648839  0.24904963     0.29700
F613        F  0.27263441  0.96687263  0.25058606    -0.19700
H614        H  0.32612822  0.53122129  0.25062515     0.18100
H615        H  0.20854761  0.02420012  0.24400874     0.18100
F616        F  0.26210741  0.58846822  0.24407243    -0.19700
C617        C  0.04798689  0.77715144  0.25661747    -0.21100
C618        C  0.04950896  0.81003321  0.25386506    -0.09100
C619        C  0.01748713  0.81099987  0.25199015     0.29700
C620        C  0.48471812  0.77948143  0.25227775    -0.21100
C621        C  0.48332775  0.74658938  0.25409884    -0.09200
C622        C  0.51521376  0.74561525  0.25659306     0.29700
F623        F  0.51474962  0.71421290  0.25906659    -0.19700
H624        H  0.07220674  0.77574199  0.25822480     0.18100
H625        H  0.46044870  0.78074248  0.25039886     0.18100
F626        F  0.01770043  0.84231387  0.24978405    -0.19700
C627        C  0.09424708  0.88567459  0.32113795    -0.21100
C628        C  0.11893644  0.91799954  0.31108363    -0.09100
C629        C  0.13767417  0.94848863  0.32458045     0.29700
C630        C  0.13406446  0.94564081  0.34811747    -0.21100
C631        C  0.11216778  0.91231756  0.35821896    -0.09200
C632        C  0.09100093  0.88272635  0.34452085     0.29700
F633        F  0.07014827  0.85013846  0.35384413    -0.19700
H634        H  0.07999409  0.86181423  0.31096379     0.18100
H635        H  0.15122339  0.96852369  0.35847099     0.18100
F636        F  0.16219267  0.97986182  0.31528149    -0.19700
C637        C  0.16032374  0.88126199  0.50015045    -0.21100
C638        C  0.18025139  0.89230003  0.48033615    -0.09100
C639        C  0.21660109  0.90219039  0.48109050     0.29700
C640        C  0.23265500  0.90105654  0.50142261    -0.21100
C641        C  0.21266865  0.88951380  0.52134375    -0.09200
C642        C  0.17610423  0.87946170  0.52040575     0.29700
F643        F  0.15547228  0.86839338  0.53910730    -0.19700
H644        H  0.13232556  0.87345818  0.49986978     0.18100
H645        H  0.26077076  0.90936737  0.50156878     0.18100
F646        F  0.23687699  0.91398972  0.46224406    -0.19700
C647        C  0.29466271  0.88136626  0.65699591    -0.21100
C648        C  0.29986654  0.91087268  0.64431291    -0.09100
C649        C  0.30819601  0.94277252  0.65543887     0.29700
C650        C  0.30768143  0.94382769  0.67905800    -0.21100
C651        C  0.29935031  0.91322512  0.69164269    -0.09200
C652        C  0.29462801  0.88255694  0.68050724     0.29700
F653        F  0.28604313  0.85247198  0.69232807    -0.17300
H654        H  0.28749352  0.85640398  0.64868560     0.18100
H655        H  0.31057498  0.96737748  0.68736858     0.18100
F656        F  0.31251696  0.97141136  0.64348943    -0.19700
C657        C  0.22906071  0.52323019  0.58846665    -0.21100
C658        C  0.26206026  0.55506965  0.58995618    -0.09100
C659        C  0.29348762  0.55325347  0.59208289     0.29700
C660        C  0.29189968  0.52028756  0.59162247    -0.21100
C661        C  0.25903959  0.98858550  0.58938797    -0.09200
C662        C  0.22745790  0.49022692  0.58831423     0.29700
F663        F  0.19524593  0.96017584  0.58593495    -0.19700
H664        H  0.20441685  0.52386816  0.58696659     0.18100
H665        H  0.31655142  0.01958218  0.59267519     0.18100
F666        F  0.32588608  0.58326730  0.59357417    -0.19700
C667        C  0.29571697  0.77415510  0.57814329    -0.21100
C668        C  0.26405280  0.74106910  0.57704341    -0.09100
C669        C  0.23121837  0.74050071  0.57548423     0.29700
C670        C  0.23026174  0.77228145  0.57539902    -0.21100
C671        C  0.26186617  0.80530991  0.57657473    -0.09200
C672        C  0.29475238  0.80599053  0.57778250     0.29700
F673        F  0.32593188  0.83731752  0.57953920    -0.19700
H674        H  0.32130460  0.77541958  0.57944845     0.18100
H675        H  0.20463849  0.77101905  0.57453457     0.18100
F676        F  0.19981720  0.70925435  0.57482222    -0.19700
C677        C  0.34573151  0.66286285  0.52217951    -0.21100
C678        C  0.31002490  0.65546244  0.52228177    -0.09100
C679        C  0.29154449  0.64810015  0.50161700     0.29700
C680        C  0.30863746  0.64862854  0.48148421    -0.21100
C681        C  0.34412293  0.65561078  0.48154257    -0.09200
C682        C  0.36249364  0.66261853  0.50211378     0.29700
F683        F  0.39693519  0.67014499  0.50277557    -0.19700
H684        H  0.36072866  0.66843926  0.53774664     0.18100
H685        H  0.29388998  0.64297199  0.46580016     0.18100
F686        F  0.25711362  0.64058664  0.50076084    -0.19700
C687        C  0.23219331  0.52313892  0.75925508    -0.21100
C688        C  0.26560099  0.55459806  0.75827618    -0.09100
C689        C  0.29661905  0.55187672  0.75733685     0.29700
C690        C  0.29407230  0.51840610  0.75720431    -0.21100
C691        C  0.26064661  0.98698759  0.75766210    -0.09200
C692        C  0.22963863  0.48965489  0.75879463     0.29700
F693        F  0.19691291  0.96000200  0.75978962    -0.19700
H694        H  0.20783193  0.52440121  0.76000082     0.18100
H695        H  0.31839855  0.01708707  0.75633957     0.18100
F696        F  0.32942828  0.58145860  0.75675373    -0.19700
C697        C  0.23163355  0.73757799  0.75005937    -0.21100
C698        C  0.26504436  0.73944478  0.75004618    -0.09100
C699        C  0.29620907  0.77285896  0.74884941     0.29700
C700        C  0.29385155  0.80379088  0.74843495    -0.21100
C701        C  0.26049085  0.80195886  0.74899667    -0.09200
C702        C  0.22927318  0.76852306  0.74942800     0.29700
F703        F  0.19660786  0.76570809  0.75028524    -0.19700
H704        H  0.20721595  0.71207452  0.75081625     0.18100
H705        H  0.31827476  0.82932190  0.74798847     0.18100
F706        F  0.32895676  0.77579870  0.74902588    -0.19700
C707        C  0.21450811  0.60073342  0.67973607    -0.21100
C708        C  0.22695143  0.63171742  0.69278626    -0.09100
C709        C  0.23524473  0.66394720  0.68214018     0.29700
C710        C  0.23458217  0.66591194  0.65867778    -0.21100
C711        C  0.22529483  0.63572782  0.64545797    -0.09200
C712        C  0.21345569  0.60265564  0.65611511     0.29700
F713        F  0.20511945  0.57321856  0.64367736    -0.19700
H714        H  0.20871311  0.57586135  0.68763333     0.18100
H715        H  0.24439283  0.69169098  0.65077392     0.18100
F716        F  0.24767403  0.69437681  0.69437508    -0.19700
C717        C  0.22961643  0.87202068  0.83469315    -0.21100
C718        C  0.21231469  0.85671426  0.81426821    -0.09100
C719        C  0.17884370  0.82502082  0.81489015     0.29700
C720        C  0.16339385  0.80907629  0.83547646    -0.21100
C721        C  0.18049717  0.82462898  0.85588467    -0.09200
C722        C  0.21382173  0.85643568  0.85529048     0.29700
F723        F  0.23180618  0.87193321  0.87461831    -0.19700
H724        H  0.25541673  0.89613032  0.83473182     0.18100
H725        H  0.13790056  0.78460282  0.83545485     0.18100
F726        F  0.16143085  0.80866502  0.79558117    -0.19700
C727        C  0.15315495  0.86045464  0.14866593    -0.21100
C728        C  0.15023606  0.82651276  0.14891595    -0.09100
C729        C  0.14847525  0.81047242  0.16982915     0.29700
C730        C  0.15016995  0.82834492  0.18989719    -0.21100
C731        C  0.15268237  0.86209877  0.18957236    -0.09200
C732        C  0.15392583  0.87787462  0.16868908     0.29700
F733        F  0.15623865  0.91026565  0.16757973    -0.19700
H734        H  0.15411541  0.87336554  0.13284449     0.18100
H735        H  0.14860816  0.81531203  0.20577299     0.18100
F736        F  0.14533618  0.77772251  0.17094736    -0.19700
C737        C  0.09111255  0.74280428  0.01466093    -0.21100
C738        C  0.11743041  0.73862094  0.02591470    -0.09100
C739        C  0.14051944  0.73145860  0.01333592     0.29700
C740        C  0.13884215  0.73108966  0.98971442    -0.21100
C741        C  0.11454152  0.73843220  0.97848910    -0.09200
C742        C  0.08977650  0.74295557  0.99111638     0.29700
F743        F  0.06681138  0.75122006  0.98069931    -0.19700
H744        H  0.07377179  0.74934251  0.02409194     0.18100
H745        H  0.15887675  0.72872366  0.98022996     0.18100
F746        F  0.16713751  0.72884519  0.02375352    -0.19700
C747        C  0.01667836  0.74423464  0.90910128    -0.21100
C748        C  0.04806029  0.77770172  0.91033713    -0.09100
C749        C  0.04504201  0.80852656  0.91135115     0.29700
C750        C  0.51135298  0.80568998  0.91152349    -0.21100
C751        C  0.48002623  0.77215217  0.91104164    -0.09200
C752        C  0.48303432  0.74138980  0.90961280     0.29700
F753        F  0.45352388  0.70856158  0.90855914    -0.19700
H754        H  0.01809881  0.71999133  0.90828707     0.18100
H755        H  0.50979293  0.82984078  0.91259833     0.18100
F756        F  0.07452793  0.84138767  0.91217213    -0.19700
C757        C  0.29583728  0.80239871  0.92891215    -0.21100
C758        C  0.29413304  0.76963676  0.92481703    -0.09100
C759        C  0.26086224  0.73901001  0.92144380     0.29700
C760        C  0.22996609  0.74156291  0.92111787    -0.21100
C761        C  0.23165217  0.77459663  0.92433559    -0.09200
C762        C  0.26488728  0.80491953  0.92889393     0.29700
F763        F  0.26779693  0.83723213  0.93238350    -0.19700
H764        H  0.32134335  0.82627709  0.93171575     0.18100
H765        H  0.20471796  0.71767010  0.91777718     0.18100
F766        F  0.25838592  0.70709422  0.91705751    -0.19700
C767        C  0.36144828  0.73665345  0.83648082    -0.21100
C768        C  0.34640759  0.72039891  0.85709421    -0.09100
C769        C  0.31491661  0.68670840  0.85680860     0.29700
C770        C  0.29887223  0.67005208  0.83636691    -0.21100
C771        C  0.31419725  0.68611170  0.81577093    -0.09200
C772        C  0.34582095  0.71965671  0.81605383     0.29700
F773        F  0.36105652  0.73675944  0.79654164    -0.19700
H774        H  0.38544155  0.76252403  0.83616070     0.18100
H775        H  0.27448649  0.64450504  0.83665049     0.18100
F776        F  0.29888725  0.67021121  0.87630607    -0.19700
C777        C  0.37620519  0.69068646  0.14843431    -0.21100
C778        C  0.37454570  0.72240223  0.14855465    -0.09100
C779        C  0.37384595  0.73739721  0.16932662     0.29700
C780        C  0.37469106  0.72093746  0.18945905    -0.21100
C781        C  0.37708603  0.68961926  0.18940118    -0.09200
C782        C  0.37791947  0.67465632  0.16860475     0.29700
F783        F  0.38019931  0.64454346  0.16771765    -0.19700
H784        H  0.37717781  0.67876079  0.13263418     0.18100
H785        H  0.37430965  0.73330306  0.20520761     0.18100
F786        F  0.37209172  0.76779648  0.17021500    -0.19700
C787        C  0.50871847  0.80469720  0.08176996    -0.21100
C788        C  0.47750685  0.77157563  0.08432917    -0.09100
C789        C  0.47990629  0.74062125  0.08656026     0.29700
C790        C  0.01323360  0.74301717  0.08665137    -0.21100
C791        C  0.04460532  0.77622746  0.08438815    -0.09200
C792        C  0.04205233  0.80710051  0.08167919     0.29700
F793        F  0.07165021  0.83969197  0.07971584    -0.19700
H794        H  0.50730316  0.82886591  0.07999951     0.18100
H795        H  0.01446010  0.71880090  0.08874973     0.18100
F796        F  0.45027978  0.70835520  0.08968581    -0.19700
C797        C  0.29498809  0.80573746  0.09228355    -0.21100
C798        C  0.29292675  0.77228942  0.09110401    -0.09100
C799        C  0.25920658  0.74137805  0.09006995     0.29700
C800        C  0.22834917  0.74405463  0.09017768    -0.21100
C801        C  0.23043869  0.77750680  0.09099727    -0.09200
C802        C  0.26410764  0.80842143  0.09206936     0.29700
F803        F  0.26721901  0.84114954  0.09331338    -0.19700
H804        H  0.32063951  0.83000676  0.09306689     0.18100
H805        H  0.20268047  0.71980978  0.08929550     0.18100
F806        F  0.25594239  0.70855838  0.08925289    -0.19700
C807        C  0.43244901  0.80293451  0.01615557    -0.21100
C808        C  0.40841625  0.81124268  0.02647406    -0.09100
C809        C  0.38931420  0.82287818  0.01310715     0.29700
C810        C  0.39182996  0.82278243  0.98949898    -0.21100
C811        C  0.41309960  0.81073141  0.97920744    -0.09200
C812        C  0.43463132  0.80240805  0.99273279     0.29700
F813        F  0.45482202  0.78999229  0.98326761    -0.19700
H814        H  0.44693943  0.79337054  0.02621642     0.18100
H815        H  0.37441168  0.82847519  0.97931925     0.18100
F816        F  0.36548354  0.83049010  0.02268397    -0.19700
O817        O  0.91452802  0.24283596  0.07863976    -0.74200
O818        O  0.82602720  0.24285324  0.08260604    -0.74300
O819        O  0.87847804  0.26368116  0.05152509    -0.74300
O820        O  0.86263447  0.22055166  0.10936120    -0.74400
O821        O  0.89050152  0.27417820  0.12553448    -0.74300
O822        O  0.90735548  0.31814239  0.06666185    -0.74300
O823        O  0.85490268  0.29700948  0.09800057    -0.74200
O824        O  0.94241760  0.29689196  0.09434944    -0.74300
Ni825      Ni  0.86917596  0.24058172  0.07999569     1.25400
Ni826      Ni  0.89956803  0.29846440  0.09678363     1.25400
C827        C  0.94306518  0.27019948  0.08579553     0.88000
C828        C  0.82609994  0.27038341  0.09065460     0.87900
C829        C  0.89688550  0.29751378  0.04939462     0.87900
C830        C  0.87545129  0.24002294  0.12689587     0.88100
O831        O  0.82944812  0.24147165  0.92886227    -0.74200
O832        O  0.91798542  0.24207660  0.92098152    -0.74300
O833        O  0.88910753  0.26271935  0.95387564    -0.74300
O834        O  0.85702134  0.21932187  0.89635804    -0.74400
O835        O  0.88141812  0.27275113  0.88013176    -0.74300
O836        O  0.91209412  0.31703942  0.93888838    -0.74300
O837        O  0.94179698  0.29642374  0.90607185    -0.74200
O838        O  0.85377284  0.29520733  0.91290487    -0.74300
Ni839      Ni  0.87267261  0.23951146  0.92554865     1.25400
Ni840      Ni  0.89825794  0.29725662  0.90884317     1.25400
C841        C  0.82733978  0.26857683  0.92219699     0.88000
C842        C  0.94477123  0.26986786  0.91262379     0.87900
C843        C  0.90480287  0.29656579  0.95608367     0.87900
C844        C  0.86275834  0.23852555  0.87881657     0.88100
O845        O  0.60776721  0.30561885  0.07868953    -0.74200
O846        O  0.69703867  0.30685541  0.08276015    -0.74300
O847        O  0.64444165  0.28611099  0.05144347    -0.74300
O848        O  0.66020068  0.32804691  0.10960675    -0.74400
O849        O  0.63295830  0.27437996  0.12559316    -0.74300
O850        O  0.61615822  0.23145927  0.06623049    -0.74300
O851        O  0.66866582  0.25246690  0.09779188    -0.74200
O852        O  0.58065813  0.25155470  0.09420239    -0.74300
Ni853      Ni  0.65351599  0.30856717  0.08011390     1.25400
Ni854      Ni  0.62380918  0.25053854  0.09657608     1.25400
C855        C  0.57944268  0.27806050  0.08575724     0.88000
C856        C  0.69725487  0.27931431  0.09061143     0.87900
C857        C  0.62678138  0.25230308  0.04907877     0.87900
C858        C  0.64802826  0.30854052  0.12712660     0.88100
O859        O  0.69775935  0.30458145  0.92811531    -0.74200
O860        O  0.61069826  0.30711963  0.91958615    -0.74300
O861        O  0.63889715  0.28592581  0.95288446    -0.74300
O862        O  0.67109826  0.32742512  0.89505241    -0.74400
O863        O  0.64459450  0.27352241  0.87927739    -0.74300
O864        O  0.61421402  0.23117800  0.93828489    -0.74300
O865        O  0.58519536  0.25235003  0.90514664    -0.74200
O866        O  0.67178657  0.25074171  0.91228081    -0.74300
Ni867      Ni  0.65540731  0.30820564  0.92440106     1.25400
Ni868      Ni  0.62790982  0.25004861  0.90811961     1.25400
C869        C  0.69888558  0.27691129  0.92158462     0.88000
C870        C  0.58319104  0.27947751  0.91152853     0.87900
C871        C  0.62238758  0.25211494  0.95531315     0.87900
C872        C  0.66427198  0.30758416  0.87770727     0.88100
O873        O  0.79433624  0.20542107  0.74536333    -0.74200
O874        O  0.79491364  0.11722421  0.74991646    -0.74300
O875        O  0.77431792  0.14897966  0.71834051    -0.74300
O876        O  0.81646248  0.17580602  0.77666260    -0.74400
O877        O  0.76262400  0.14989920  0.79235251    -0.74300
O878        O  0.71959835  0.12310124  0.73293592    -0.74300
O879        O  0.74051331  0.09165425  0.76479152    -0.74200
O880        O  0.74010218  0.17907068  0.76058824    -0.74300
Ni881      Ni  0.79691601  0.16251681  0.74707810     1.25400
Ni882      Ni  0.73878919  0.13476387  0.76329860     1.25400
C883        C  0.76674431  0.20647249  0.75206897     0.88000
C884        C  0.76734018  0.08964017  0.75776703     0.87900
C885        C  0.74047848  0.13359390  0.71586018     0.87900
C886        C  0.79679166  0.16921596  0.79400382     0.88100
O887        O  0.79091949  0.11853131  0.59431001    -0.74200
O888        O  0.79290340  0.20762084  0.58647823    -0.74300
O889        O  0.77229653  0.15841244  0.61956323    -0.74300
O890        O  0.81285391  0.16785377  0.56148385    -0.74400
O891        O  0.75868591  0.13974255  0.54592199    -0.74300
O892        O  0.71723012  0.12820705  0.60520476    -0.74300
O893        O  0.73794525  0.17827300  0.57208450    -0.74200
O894        O  0.73656864  0.09012497  0.57891856    -0.74300
Ni895      Ni  0.79414530  0.16421209  0.59095720     1.25400
Ni896      Ni  0.73565627  0.13321892  0.57491993     1.25400
C897        C  0.76330634  0.08962755  0.58779263     0.88000
C898        C  0.76518376  0.20743494  0.57845775     0.87900
C899        C  0.73848859  0.14112136  0.62216288     0.87900
C900        C  0.79281159  0.15454660  0.54416106     0.88100
O901        O  0.73155831  0.33630124  0.74360285    -0.74200
O902        O  0.73124558  0.42462066  0.74860128    -0.74300
O903        O  0.75173387  0.39340104  0.71689347    -0.74300
O904        O  0.70977027  0.36583123  0.77493062    -0.74400
O905        O  0.76371211  0.39148871  0.79086662    -0.74300
O906        O  0.80648107  0.41899651  0.73187066    -0.74300
O907        O  0.78576839  0.44989883  0.76373619    -0.74200
O908        O  0.78590026  0.36247758  0.75910010    -0.74300
Ni909      Ni  0.72916034  0.37933335  0.74547249     1.25400
Ni910      Ni  0.78738040  0.40680718  0.76201786     1.25400
C911        C  0.75908924  0.33510747  0.75053610     0.88000
C912        C  0.75888119  0.45201590  0.75673347     0.87900
C913        C  0.78559988  0.40923519  0.71466719     0.87900
C914        C  0.72954399  0.37255371  0.79239157     0.88100
O915        O  0.73132114  0.42527638  0.59314429    -0.74200
O916        O  0.73224043  0.33775331  0.58563023    -0.74300
O917        O  0.75217412  0.38709252  0.61857951    -0.74300
O918        O  0.71039921  0.37595149  0.56042431    -0.74400
O919        O  0.76428185  0.40549622  0.54499759    -0.74300
O920        O  0.80690973  0.41795289  0.60417604    -0.74300
O921        O  0.78686406  0.36795021  0.57116132    -0.74200
O922        O  0.78562320  0.45487555  0.57809467    -0.74300
Ni923      Ni  0.72964690  0.38035141  0.58993637     1.25400
Ni924      Ni  0.78786050  0.41247576  0.57397499     1.25400
C925        C  0.75852015  0.45452746  0.58685090     0.88000
C926        C  0.76016046  0.33858353  0.57768479     0.87900
C927        C  0.78603403  0.40492981  0.62112352     0.87900
C928        C  0.73008693  0.39000646  0.54319700     0.88100
O929        O  0.61263066  0.34368937  0.25959435    -0.74200
O930        O  0.70207505  0.43117665  0.25539515    -0.74300
O931        O  0.64935612  0.40042861  0.28642266    -0.74300
O932        O  0.66464477  0.37224217  0.22878337    -0.74400
O933        O  0.63780026  0.39896142  0.21230369    -0.74300
O934        O  0.62095032  0.42642460  0.27094382    -0.74300
O935        O  0.67388526  0.45720044  0.23984054    -0.74200
O936        O  0.58560756  0.37038944  0.24330494    -0.74300
Ni937      Ni  0.65841689  0.38620354  0.25807604     1.25400
Ni938      Ni  0.62884338  0.41441672  0.24094118     1.25400
C939        C  0.58429621  0.34293454  0.25226209     0.88000
C940        C  0.70247602  0.45892225  0.24734629     0.87900
C941        C  0.63104448  0.41603151  0.28833039     0.87900
C942        C  0.65217357  0.37919280  0.21113492     0.88100
O943        O  0.69566342  0.42786132  0.40832324    -0.74200
O944        O  0.60817952  0.33944341  0.41739034    -0.74300
O945        O  0.63573195  0.38812482  0.38385169    -0.74300
O946        O  0.66958132  0.37937271  0.44145370    -0.74400
O947        O  0.64373664  0.40736730  0.45731106    -0.74300
O948        O  0.61259096  0.41958425  0.39841868    -0.74300
O949        O  0.58346488  0.36956341  0.43158637    -0.74200
O950        O  0.67100227  0.45693622  0.42424103    -0.74300
Ni951      Ni  0.65299283  0.38250850  0.41223351     1.25400
Ni952      Ni  0.62666490  0.41425703  0.42851717     1.25400
C953        C  0.69758525  0.45697812  0.41492370     0.88000
C954        C  0.58106047  0.34007488  0.42555484     0.87900
C955        C  0.61993729  0.40620210  0.38140955     0.87900
C956        C  0.66333429  0.39282382  0.45875440     0.88100
O957        O  0.92033670  0.21254085  0.25929049    -0.74200
O958        O  0.83182131  0.12393836  0.25597037    -0.74300
O959        O  0.88501566  0.15683025  0.28688770    -0.74300
O960        O  0.86753348  0.18155934  0.22871903    -0.74400
O961        O  0.89539484  0.15563855  0.21289073    -0.74300
O962        O  0.91356111  0.13057178  0.27232914    -0.74300
O963        O  0.86053832  0.09821124  0.24103260    -0.74200
O964        O  0.94809979  0.18593258  0.24414500    -0.74300
Ni965      Ni  0.87498117  0.16940927  0.25822769     1.25400
Ni966      Ni  0.90519693  0.14145051  0.24196121     1.25400
C967        C  0.94887867  0.21345433  0.25250863     0.88000
C968        C  0.83182212  0.09629846  0.24818908     0.87900
C969        C  0.90346575  0.14144894  0.28937653     0.87900
C970        C  0.87977545  0.17426374  0.21125489     0.88100
O971        O  0.82966923  0.12070947  0.40905513    -0.74200
O972        O  0.91587400  0.21023422  0.41908359    -0.74300
O973        O  0.88960694  0.16218443  0.38527503    -0.74300
O974        O  0.85452235  0.16881960  0.44262846    -0.74400
O975        O  0.88142636  0.14173624  0.45857964    -0.74300
O976        O  0.91388104  0.13158289  0.39984666    -0.74300
O977        O  0.94161245  0.18091216  0.43333714    -0.74200
O978        O  0.85532622  0.09255155  0.42515417    -0.74300
Ni979      Ni  0.87161384  0.16660095  0.41350342     1.25400
Ni980      Ni  0.89906760  0.13578555  0.42986950     1.25400
C981        C  0.82839302  0.09182911  0.41563050     0.88000
C982        C  0.94343798  0.21010505  0.42716062     0.87900
C983        C  0.90674084  0.14544228  0.38288947     0.87900
C984        C  0.86125757  0.15564691  0.45998267     0.88100
C985        C  0.93527242  0.17232115  0.32375704    -0.21100
C986        C  0.91500179  0.13976154  0.31248437    -0.09100
C987        C  0.89906685  0.10798571  0.32496184     0.29700
C988        C  0.90034539  0.10936249  0.34864921    -0.21100
C989        C  0.91728994  0.14242590  0.35983828    -0.09200
C990        C  0.93631819  0.17373986  0.34721334     0.29700
F991        F  0.95263770  0.20603652  0.35756629    -0.19700
H992        H  0.94748101  0.19708443  0.31437776     0.18100
H993        H  0.88500003  0.08501924  0.35813487     0.18100
F994        F  0.87900788  0.07622175  0.31443797    -0.19700
C995        C  0.76391047  0.99225788  0.41381359    -0.21100
C996        C  0.73104316  0.49118786  0.41243055    -0.09100
C997        C  0.73053165  0.02330909  0.41023057     0.29700
C998        C  0.76239425  0.05592245  0.41028615    -0.21100
C999        C  0.79524990  0.05714541  0.41288785    -0.09200
C1000       C  0.79576235  0.02487217  0.41422323     0.29700
F1001       F  0.82695354  0.02471165  0.41629705    -0.19700
H1002       H  0.76490780  0.46786270  0.41551742     0.18100
H1003       H  0.76123273  0.08028264  0.40913129     0.18100
F1004       F  0.69921262  0.52324396  0.40826694    -0.19700
C1005       C  0.01013122  0.24194993  0.42834801    -0.21100
C1006       C  0.97843475  0.24359905  0.42847118    -0.09100
C1007       C  0.98094701  0.27724445  0.42872024     0.29700
C1008       C  0.51440608  0.30835247  0.42841758    -0.21100
C1009       C  0.54607210  0.30668390  0.42748317    -0.09200
C1010       C  0.54355232  0.27302267  0.42768329     0.29700
F1011       F  0.57330992  0.27001688  0.42723665    -0.19700
H1012       H  0.00908033  0.21643624  0.42811820     0.18100
H1013       H  0.51545723  0.33386673  0.42832598     0.18100
F1014       F  0.95114763  0.28016741  0.42925384    -0.19700
C1015       C  0.80052472  0.02991697  0.24912969    -0.21100
C1016       C  0.79862178  0.06135341  0.24772626    -0.09100
C1017       C  0.76504245  0.05878252  0.24588090     0.29700
C1018       C  0.73408822  0.02536142  0.24542193    -0.21100
C1019       C  0.73589204  0.49385822  0.24714495    -0.09200
C1020       C  0.76954136  0.99648839  0.24904964     0.29700
F1021       F  0.77263434  0.46687264  0.25058606    -0.19700
H1022       H  0.82612814  0.03122131  0.25062512     0.18100
H1023       H  0.70854758  0.52420018  0.24400871     0.18100
F1024       F  0.76210731  0.08846819  0.24407250    -0.19700
C1025       C  0.54798685  0.27715144  0.25661741    -0.21100
C1026       C  0.54950898  0.31003322  0.25386504    -0.09100
C1027       C  0.51748714  0.31099988  0.25199015     0.29700
C1028       C  0.98471806  0.27948141  0.25227769    -0.21100
C1029       C  0.98332776  0.24658936  0.25409877    -0.09200
C1030       C  0.01521378  0.24561525  0.25659296     0.29700
F1031       F  0.01474967  0.21421290  0.25906645    -0.19700
H1032       H  0.57220688  0.27574197  0.25822472     0.18100
H1033       H  0.96044882  0.28074244  0.25039882     0.18100
F1034       F  0.51770046  0.34231387  0.24978407    -0.19700
C1035       C  0.59424709  0.38567454  0.32113796    -0.21100
C1036       C  0.61893643  0.41799951  0.31108365    -0.09100
C1037       C  0.63767417  0.44848859  0.32458047     0.29700
C1038       C  0.63406447  0.44564077  0.34811749    -0.21100
C1039       C  0.61216778  0.41231752  0.35821897    -0.09200
C1040       C  0.59100095  0.38272630  0.34452087     0.29700
F1041       F  0.57014831  0.35013841  0.35384414    -0.19700
H1042       H  0.57999411  0.36181420  0.31096381     0.18100
H1043       H  0.65122338  0.46852363  0.35847101     0.18100
F1044       F  0.66219268  0.47986178  0.31528151    -0.19700
C1045       C  0.66032368  0.38126173  0.50015045    -0.21100
C1046       C  0.68025138  0.39229999  0.48033617    -0.09100
C1047       C  0.71660113  0.40219055  0.48109053     0.29700
C1048       C  0.73265504  0.40105666  0.50142263    -0.21100
C1049       C  0.71266865  0.38951372  0.52134375    -0.09200
C1050       C  0.67610418  0.37946144  0.52040573     0.29700
F1051       F  0.65547220  0.36839297  0.53910727    -0.19700
H1052       H  0.63232547  0.37345778  0.49986976     0.18100
H1053       H  0.76077083  0.40936764  0.50156881     0.18100
F1054       F  0.73687707  0.41399012  0.46224411    -0.19700
C1055       C  0.79466273  0.38136622  0.65699592    -0.21100
C1056       C  0.79986657  0.41087265  0.64431291    -0.09100
C1057       C  0.80819605  0.44277248  0.65543888     0.29700
C1058       C  0.80768146  0.44382764  0.67905801    -0.21100
C1059       C  0.79935030  0.41322505  0.69164270    -0.09200
C1060       C  0.79462801  0.38255687  0.68050724     0.29700
F1061       F  0.78604313  0.35247191  0.69232807    -0.17300
H1062       H  0.78749353  0.35640392  0.64868559     0.18100
H1063       H  0.81057502  0.46737744  0.68736860     0.18100
F1064       F  0.81251701  0.47141132  0.64348944    -0.19700
C1065       C  0.72906070  0.02323017  0.58846666    -0.21100
C1066       C  0.76206023  0.05506963  0.58995622    -0.09100
C1067       C  0.79348758  0.05325345  0.59208299     0.29700
C1068       C  0.79189964  0.02028754  0.59162257    -0.21100
C1069       C  0.75903959  0.48858549  0.58938796    -0.09200
C1070       C  0.72745787  0.99022690  0.58831425     0.29700
F1071       F  0.69524594  0.46017583  0.58593497    -0.19700
H1072       H  0.70441681  0.02386816  0.58696657     0.18100
H1073       H  0.81655145  0.51958219  0.59267511     0.18100
F1074       F  0.82588604  0.08326728  0.59357434    -0.19700
C1075       C  0.79571705  0.27415514  0.57814329    -0.21100
C1076       C  0.76405291  0.24106913  0.57704338    -0.09100
C1077       C  0.73121847  0.24050072  0.57548418     0.29700
C1078       C  0.73026183  0.27228145  0.57539900    -0.21100
C1079       C  0.76186623  0.30530992  0.57657474    -0.09200
C1080       C  0.79475245  0.30599055  0.57778251     0.29700
F1081       F  0.82593195  0.33731755  0.57953921    -0.19700
H1082       H  0.82130472  0.27541963  0.57944846     0.18100
H1083       H  0.70463853  0.27101904  0.57453453     0.18100
F1084       F  0.69981730  0.20925436  0.57482211    -0.19700
C1085       C  0.84573156  0.16286266  0.52217957    -0.21100
C1086       C  0.81002495  0.15546233  0.52228179    -0.09100
C1087       C  0.79154457  0.14810012  0.50161701     0.29700
C1088       C  0.80863752  0.14862849  0.48148421    -0.21100
C1089       C  0.84412297  0.15561064  0.48154260    -0.09200
C1090       C  0.86249365  0.16261832  0.50211380     0.29700
F1091       F  0.89693517  0.17014469  0.50277560    -0.19700
H1092       H  0.86072858  0.16843897  0.53774660     0.18100
H1093       H  0.79389009  0.14297201  0.46580019     0.18100
F1094       F  0.75711374  0.14058674  0.50076083    -0.19700
C1095       C  0.73219340  0.02313890  0.75925508    -0.21100
C1096       C  0.76560100  0.05459804  0.75827616    -0.09100
C1097       C  0.79661907  0.05187670  0.75733680     0.29700
C1098       C  0.79407229  0.01840608  0.75720429    -0.21100
C1099       C  0.76064657  0.48698756  0.75766209    -0.09200
C1100       C  0.72963863  0.98965488  0.75879464     0.29700
F1101       F  0.69691287  0.46000202  0.75978960    -0.19700
H1102       H  0.70783178  0.02440121  0.76000084     0.18100
H1103       H  0.81839851  0.51708701  0.75633962     0.18100
F1104       F  0.82942829  0.08145857  0.75675361    -0.19700
C1105       C  0.73163349  0.23757794  0.75005940    -0.21100
C1106       C  0.76504431  0.23944474  0.75004618    -0.09100
C1107       C  0.79620902  0.27285892  0.74884940     0.29700
C1108       C  0.79385152  0.30379085  0.74843494    -0.21100
C1109       C  0.76049081  0.30195882  0.74899669    -0.09200
C1110       C  0.72927314  0.26852302  0.74942804     0.29700
F1111       F  0.69660783  0.26570806  0.75028535    -0.19700
H1112       H  0.70721595  0.21207452  0.75081629     0.18100
H1113       H  0.81827469  0.32932184  0.74798844     0.18100
F1114       F  0.82895672  0.27579866  0.74902587    -0.19700
C1115       C  0.71450792  0.10073343  0.67973605    -0.21100
C1116       C  0.72695148  0.13171751  0.69278622    -0.09100
C1117       C  0.73524500  0.16394735  0.68214016     0.29700
C1118       C  0.73458247  0.16591213  0.65867776    -0.21100
C1119       C  0.72529491  0.13572796  0.64545794    -0.09200
C1120       C  0.71345553  0.10265575  0.65611507     0.29700
F1121       F  0.70511906  0.07321863  0.64367730    -0.19700
H1122       H  0.70871279  0.07586149  0.68763324     0.18100
H1123       H  0.74439329  0.19169120  0.65077391     0.18100
F1124       F  0.74767445  0.19437697  0.69437507    -0.19700
C1125       C  0.72961655  0.37202073  0.83469318    -0.21100
C1126       C  0.71231466  0.35671431  0.81426825    -0.09100
C1127       C  0.67884363  0.32502094  0.81489022     0.29700
C1128       C  0.66339374  0.30907640  0.83547654    -0.21100
C1129       C  0.68049718  0.32462908  0.85588473    -0.09200
C1130       C  0.71382182  0.35643567  0.85529051     0.29700
F1131       F  0.73180637  0.37193311  0.87461834    -0.19700
H1132       H  0.75541673  0.39613013  0.83473183     0.18100
H1133       H  0.63790052  0.28460311  0.83545493     0.18100
F1134       F  0.66143070  0.30866517  0.79558125    -0.19700
C1135       C  0.65315488  0.36045468  0.14866590    -0.21100
C1136       C  0.65023608  0.32651283  0.14891594    -0.09100
C1137       C  0.64847533  0.31047254  0.16982915     0.29700
C1138       C  0.65017005  0.32834506  0.18989718    -0.21100
C1139       C  0.65268239  0.36209887  0.18957234    -0.09200
C1140       C  0.65392576  0.37787466  0.16868906     0.29700
F1141       F  0.65623847  0.41026565  0.16757970    -0.19700
H1142       H  0.65411526  0.37336552  0.13284448     0.18100
H1143       H  0.64860834  0.31531220  0.20577299     0.18100
F1144       F  0.64533632  0.27772265  0.17094737    -0.19700
C1145       C  0.59111251  0.24280404  0.01466094    -0.21100
C1146       C  0.61743044  0.23862085  0.02591473    -0.09100
C1147       C  0.64051957  0.23145866  0.01333594     0.29700
C1148       C  0.63884225  0.23108977  0.98971447    -0.21100
C1149       C  0.61454157  0.23843216  0.97848912    -0.09200
C1150       C  0.58977644  0.24295535  0.99111641     0.29700
F1151       F  0.56681123  0.25121969  0.98069933    -0.19700
H1152       H  0.57377161  0.24934218  0.02409199     0.18100
H1153       H  0.65887711  0.22872388  0.98022993     0.18100
F1154       F  0.66713771  0.22884537  0.02375354    -0.19700
C1155       C  0.51667833  0.24423474  0.90910144    -0.21100
C1156       C  0.54806026  0.27770175  0.91033722    -0.09100
C1157       C  0.54504199  0.30852660  0.91135118     0.29700
C1158       C  0.01135296  0.30568998  0.91152349    -0.21100
C1159       C  0.98002621  0.27215215  0.91104168    -0.09200
C1160       C  0.98303432  0.24138978  0.90961293     0.29700
F1161       F  0.95352390  0.20856155  0.90855932    -0.19700
H1162       H  0.51809879  0.21999121  0.90828728     0.18100
H1163       H  0.00979290  0.32984075  0.91259827     0.18100
F1164       F  0.57452790  0.34138771  0.91217212    -0.19700
C1165       C  0.79583732  0.30239876  0.92891213    -0.21100
C1166       C  0.79413300  0.26963675  0.92481698    -0.09100
C1167       C  0.76086221  0.23901002  0.92144375     0.29700
C1168       C  0.72996594  0.24156281  0.92111783    -0.21100
C1169       C  0.73165216  0.27459664  0.92433558    -0.09200
C1170       C  0.76488726  0.30491952  0.92889392     0.29700
F1171       F  0.76779693  0.33723215  0.93238350    -0.19700
H1172       H  0.82134320  0.32627696  0.93171570     0.18100
H1173       H  0.70471816  0.21767033  0.91777719     0.18100
F1174       F  0.75838589  0.20709422  0.91705747    -0.19700
C1175       C  0.86144822  0.23665333  0.83648078    -0.21100
C1176       C  0.84640759  0.22039887  0.85709418    -0.09100
C1177       C  0.81491659  0.18670837  0.85680858     0.29700
C1178       C  0.79887226  0.17005213  0.83636690    -0.21100
C1179       C  0.81419719  0.18611163  0.81577091    -0.09200
C1180       C  0.84582093  0.21965663  0.81605379     0.29700
F1181       F  0.86105652  0.23675932  0.79654160    -0.19700
H1182       H  0.88544167  0.26252407  0.83616065     0.18100
H1183       H  0.77448624  0.14450484  0.83665049     0.18100
F1184       F  0.79888725  0.17021119  0.87630606    -0.19700
C1185       C  0.87620536  0.19068655  0.14843426    -0.21100
C1186       C  0.87454577  0.22240225  0.14855459    -0.09100
C1187       C  0.87384589  0.23739716  0.16932656     0.29700
C1188       C  0.87469104  0.22093744  0.18945899    -0.21100
C1189       C  0.87708611  0.18961929  0.18940112    -0.09200
C1190       C  0.87791963  0.17465640  0.16860469     0.29700
F1191       F  0.88019952  0.14454357  0.16771759    -0.19700
H1192       H  0.87717806  0.17876090  0.13263409     0.18100
H1193       H  0.87430955  0.23330298  0.20520754     0.18100
F1194       F  0.87209147  0.26779632  0.17021493    -0.19700
C1195       C  0.00871848  0.30469714  0.08176991    -0.21100
C1196       C  0.97750685  0.27157559  0.08432910    -0.09100
C1197       C  0.97990630  0.24062121  0.08656019     0.29700
C1198       C  0.51323360  0.24301712  0.08665137    -0.21100
C1199       C  0.54460533  0.27622741  0.08438816    -0.09200
C1200       C  0.54205233  0.30710046  0.08167920     0.29700
F1201       F  0.57165021  0.33969193  0.07971584    -0.19700
H1202       H  0.00730318  0.32886593  0.07999948     0.18100
H1203       H  0.51446010  0.21880085  0.08874974     0.18100
F1204       F  0.95027979  0.20835515  0.08968568    -0.19700
C1205       C  0.79498809  0.30573745  0.09228348    -0.21100
C1206       C  0.79292678  0.27228944  0.09110395    -0.09100
C1207       C  0.75920661  0.24137806  0.09006994     0.29700
C1208       C  0.72834917  0.24405461  0.09017770    -0.21100
C1209       C  0.73043870  0.27750678  0.09099727    -0.09200
C1210       C  0.76410764  0.30842142  0.09206933     0.29700
F1211       F  0.76721900  0.34114953  0.09331335    -0.19700
H1212       H  0.82063958  0.33000682  0.09306678     0.18100
H1213       H  0.70268054  0.21980980  0.08929556     0.18100
F1214       F  0.75594243  0.20855840  0.08925291    -0.19700
C1215       C  0.93244895  0.30293437  0.01615548    -0.21100
C1216       C  0.90841625  0.31124261  0.02647399    -0.09100
C1217       C  0.88931426  0.32287819  0.01310711     0.29700
C1218       C  0.89182999  0.32278244  0.98949894    -0.21100
C1219       C  0.91309958  0.31073137  0.97920738    -0.09200
C1220       C  0.93463126  0.30240794  0.99273271     0.29700
F1221       F  0.95482193  0.28999216  0.98326750    -0.19700
H1222       H  0.94693935  0.29337033  0.02621634     0.18100
H1223       H  0.87441174  0.32847526  0.97931922     0.18100
F1224       F  0.86548369  0.33049021  0.02268396    -0.19700
O1225       O  0.91452802  0.74283602  0.07863982    -0.74200
O1226       O  0.82602722  0.74285328  0.08260608    -0.74300
O1227       O  0.87847806  0.76368125  0.05152515    -0.74300
O1228       O  0.86263448  0.72055170  0.10936125    -0.74400
O1229       O  0.89050149  0.77417823  0.12553455    -0.74300
O1230       O  0.90735552  0.81814247  0.06666193    -0.74300
O1231       O  0.85490268  0.79700952  0.09800064    -0.74200
O1232       O  0.94241760  0.79689201  0.09434953    -0.74300
Ni1233     Ni  0.86917598  0.74058178  0.07999575     1.25400
Ni1234     Ni  0.89956803  0.79846444  0.09678371     1.25400
C1235       C  0.94306517  0.77019953  0.08579561     0.88000
C1236       C  0.82609995  0.77038346  0.09065466     0.87900
C1237       C  0.89688554  0.79751387  0.04939469     0.87900
C1238       C  0.87545128  0.74002297  0.12689593     0.88100
O1239       O  0.82944817  0.74147166  0.92886232    -0.74200
O1240       O  0.91798546  0.74207660  0.92098155    -0.74300
O1241       O  0.88910758  0.76271937  0.95387569    -0.74300
O1242       O  0.85702138  0.71932185  0.89635809    -0.74400
O1243       O  0.88141817  0.77275112  0.88013180    -0.74300
O1244       O  0.91209416  0.81703943  0.93888842    -0.74300
O1245       O  0.94179701  0.79642374  0.90607188    -0.74200
O1246       O  0.85377288  0.79520733  0.91290490    -0.74300
Ni1247     Ni  0.87267266  0.73951146  0.92554870     1.25400
Ni1248     Ni  0.89825798  0.79725662  0.90884320     1.25400
C1249       C  0.82733982  0.76857682  0.92219703     0.88000
C1250       C  0.94477125  0.76986785  0.91262380     0.87900
C1251       C  0.90480291  0.79656580  0.95608372     0.87900
C1252       C  0.86275841  0.73852555  0.87881661     0.88100
O1253       O  0.60776722  0.80561887  0.07868953    -0.74200
O1254       O  0.69703868  0.80685545  0.08276017    -0.74300
O1255       O  0.64444169  0.78611106  0.05144347    -0.74300
O1256       O  0.66020065  0.82804689  0.10960678    -0.74400
O1257       O  0.63295830  0.77437992  0.12559315    -0.74300
O1258       O  0.61615822  0.73145932  0.06623045    -0.74300
O1259       O  0.66866581  0.75246690  0.09779184    -0.74200
O1260       O  0.58065813  0.75155472  0.09420238    -0.74300
Ni1261     Ni  0.65351600  0.80856720  0.08011390     1.25400
Ni1262     Ni  0.62380918  0.75053855  0.09657606     1.25400
C1263       C  0.57944269  0.77806052  0.08575724     0.88000
C1264       C  0.69725486  0.77931432  0.09061142     0.87900
C1265       C  0.62678139  0.75230316  0.04907875     0.87900
C1266       C  0.64802823  0.80854047  0.12712662     0.88100
O1267       O  0.69775937  0.80458141  0.92811528    -0.74200
O1268       O  0.61069828  0.80711961  0.91958606    -0.74300
O1269       O  0.63889715  0.78592582  0.95288441    -0.74300
O1270       O  0.67109828  0.82742505  0.89505235    -0.74400
O1271       O  0.64459452  0.77352233  0.87927735    -0.74300
O1272       O  0.61421402  0.73117800  0.93828488    -0.74300
O1273       O  0.58519538  0.75234998  0.90514660    -0.74200
O1274       O  0.67178659  0.75074166  0.91228080    -0.74300
Ni1275     Ni  0.65540732  0.80820561  0.92440101     1.25400
Ni1276     Ni  0.62790984  0.75004856  0.90811959     1.25400
C1277       C  0.69888561  0.77691126  0.92158461     0.88000
C1278       C  0.58319106  0.77947747  0.91152845     0.87900
C1279       C  0.62238756  0.75211496  0.95531312     0.87900
C1280       C  0.66427199  0.80758407  0.87770722     0.88100
O1281       O  0.79433629  0.70542110  0.74536331    -0.74200
O1282       O  0.79491365  0.61722422  0.74991648    -0.74300
O1283       O  0.77431788  0.64897962  0.71834053    -0.74300
O1284       O  0.81646258  0.67580609  0.77666259    -0.74400
O1285       O  0.76262413  0.64989927  0.79235254    -0.74300
O1286       O  0.71959835  0.62310128  0.73293598    -0.74300
O1287       O  0.74051334  0.59165429  0.76479156    -0.74200
O1288       O  0.74010227  0.67907075  0.76058829    -0.74300
Ni1289     Ni  0.79691604  0.66251683  0.74707810     1.25400
Ni1290     Ni  0.73878925  0.63476393  0.76329865     1.25400
C1291       C  0.76674437  0.70647254  0.75206899     0.88000
C1292       C  0.76734018  0.58964018  0.75776706     0.87900
C1293       C  0.74047843  0.63359387  0.71586023     0.87900
C1294       C  0.79679178  0.66921602  0.79400383     0.88100
O1295       O  0.79091949  0.61853132  0.59430999    -0.74200
O1296       O  0.79290334  0.70762082  0.58647827    -0.74300
O1297       O  0.77229650  0.65841240  0.61956326    -0.74300
O1298       O  0.81285384  0.66785379  0.56148384    -0.74400
O1299       O  0.75868583  0.63974260  0.54592199    -0.74300
O1300       O  0.71723009  0.62820695  0.60520479    -0.74300
O1301       O  0.73794518  0.67827297  0.57208456    -0.74200
O1302       O  0.73656865  0.59012497  0.57891854    -0.74300
Ni1303     Ni  0.79414527  0.66421208  0.59095721     1.25400
Ni1304     Ni  0.73565622  0.63321890  0.57491995     1.25400
C1305       C  0.76330636  0.58962756  0.58779259     0.88000
C1306       C  0.76518368  0.70743491  0.57845780     0.87900
C1307       C  0.73848856  0.64112126  0.62216291     0.87900
C1308       C  0.79281151  0.65454666  0.54416105     0.88100
O1309       O  0.73155831  0.83630125  0.74360283    -0.74200
O1310       O  0.73124562  0.92462069  0.74860128    -0.74300
O1311       O  0.75173387  0.89340106  0.71689346    -0.74300
O1312       O  0.70977029  0.86583124  0.77493060    -0.74400
O1313       O  0.76371213  0.89148872  0.79086660    -0.74300
O1314       O  0.80648107  0.91899651  0.73187065    -0.74300
O1315       O  0.78576842  0.94989884  0.76373619    -0.74200
O1316       O  0.78590026  0.86247759  0.75910008    -0.74300
Ni1317     Ni  0.72916035  0.87933336  0.74547248     1.25400
Ni1318     Ni  0.78738041  0.90680719  0.76201785     1.25400
C1319       C  0.75908925  0.83510748  0.75053609     0.88000
C1320       C  0.75888121  0.95201592  0.75673346     0.87900
C1321       C  0.78559988  0.90923520  0.71466718     0.87900
C1322       C  0.72954399  0.87255370  0.79239154     0.88100
O1323       O  0.73132114  0.92527639  0.59314432    -0.74200
O1324       O  0.73224040  0.83775332  0.58563021    -0.74300
O1325       O  0.75217414  0.88709249  0.61857951    -0.74300
O1326       O  0.71039916  0.87595154  0.56042433    -0.74400
O1327       O  0.76428179  0.90549622  0.54499759    -0.74300
O1328       O  0.80690974  0.91795291  0.60417602    -0.74300
O1329       O  0.78686404  0.86795022  0.57116131    -0.74200
O1330       O  0.78562318  0.95487556  0.57809467    -0.74300
Ni1331     Ni  0.72964689  0.88035143  0.58993637     1.25400
Ni1332     Ni  0.78786047  0.91247577  0.57397498     1.25400
C1333       C  0.75852014  0.95452746  0.58685092     0.88000
C1334       C  0.76016044  0.83858354  0.57768477     0.87900
C1335       C  0.78603405  0.90492981  0.62112351     0.87900
C1336       C  0.73008689  0.89000650  0.54319701     0.88100
O1337       O  0.61263067  0.84368935  0.25959438    -0.74200
O1338       O  0.70207508  0.93117663  0.25539517    -0.74300
O1339       O  0.64935612  0.90042861  0.28642267    -0.74300
O1340       O  0.66464480  0.87224212  0.22878340    -0.74400
O1341       O  0.63780029  0.89896135  0.21230370    -0.74300
O1342       O  0.62095034  0.92642461  0.27094381    -0.74300
O1343       O  0.67388529  0.95720040  0.23984053    -0.74200
O1344       O  0.58560759  0.87038942  0.24330495    -0.74300
Ni1345     Ni  0.65841692  0.88620352  0.25807607     1.25400
Ni1346     Ni  0.62884341  0.91441669  0.24094118     1.25400
C1347       C  0.58429624  0.84293452  0.25226210     0.88000
C1348       C  0.70247604  0.95892222  0.24734630     0.87900
C1349       C  0.63104450  0.91603152  0.28833039     0.87900
C1350       C  0.65217360  0.87919273  0.21113494     0.88100
O1351       O  0.69566337  0.92786134  0.40832321    -0.74200
O1352       O  0.60817946  0.83944345  0.41739035    -0.74300
O1353       O  0.63573188  0.88812484  0.38385169    -0.74300
O1354       O  0.66958128  0.87937275  0.44145369    -0.74400
O1355       O  0.64373660  0.90736734  0.45731105    -0.74300
O1356       O  0.61259094  0.91958431  0.39841867    -0.74300
O1357       O  0.58346483  0.86956347  0.43158635    -0.74200
O1358       O  0.67100225  0.95693624  0.42424102    -0.74300
Ni1359     Ni  0.65299277  0.88250853  0.41223351     1.25400
Ni1360     Ni  0.62666486  0.91425708  0.42851716     1.25400
C1361       C  0.69758522  0.95697815  0.41492368     0.88000
C1362       C  0.58106041  0.84007493  0.42555484     0.87900
C1363       C  0.61993724  0.90620215  0.38140955     0.87900
C1364       C  0.66333425  0.89282387  0.45875439     0.88100
O1365       O  0.92033667  0.71254084  0.25929055    -0.74200
O1366       O  0.83182132  0.62393835  0.25597040    -0.74300
O1367       O  0.88501565  0.65683021  0.28688775    -0.74300
O1368       O  0.86753349  0.68155934  0.22871908    -0.74400
O1369       O  0.89539483  0.65563854  0.21289077    -0.74300
O1370       O  0.91356115  0.63057181  0.27232917    -0.74300
O1371       O  0.86053834  0.59821124  0.24103263    -0.74200
O1372       O  0.94809978  0.68593260  0.24414504    -0.74300
Ni1373     Ni  0.87498116  0.66940925  0.25822774     1.25400
Ni1374     Ni  0.90519694  0.64145052  0.24196125     1.25400
C1375       C  0.94887864  0.71345434  0.25250869     0.88000
C1376       C  0.83182213  0.59629846  0.24818911     0.87900
C1377       C  0.90346576  0.64144892  0.28937657     0.87900
C1378       C  0.87977544  0.67426374  0.21125494     0.88100
O1379       O  0.82966917  0.62070946  0.40905515    -0.74200
O1380       O  0.91587394  0.71023427  0.41908356    -0.74300
O1381       O  0.88960687  0.66218439  0.38527502    -0.74300
O1382       O  0.85452229  0.66881966  0.44262843    -0.74400
O1383       O  0.88142631  0.64173634  0.45857965    -0.74300
O1384       O  0.91388100  0.63158290  0.39984669    -0.74300
O1385       O  0.94161238  0.68091223  0.43333715    -0.74200
O1386       O  0.85532618  0.59255159  0.42515421    -0.74300
Ni1387     Ni  0.87161377  0.66660096  0.41350340     1.25400
Ni1388     Ni  0.89906755  0.63578561  0.42986953     1.25400
C1389       C  0.82839297  0.59182912  0.41563054     0.88000
C1390       C  0.94343792  0.71010511  0.42716060     0.87900
C1391       C  0.90674078  0.64544225  0.38288949     0.87900
C1392       C  0.86125752  0.65564701  0.45998266     0.88100
C1393       C  0.93527252  0.67232109  0.32375707    -0.21100
C1394       C  0.91500178  0.63976148  0.31248440    -0.09100
C1395       C  0.89906671  0.60798565  0.32496186     0.29700
C1396       C  0.90034528  0.60936251  0.34864920    -0.21100
C1397       C  0.91728990  0.64242583  0.35983831    -0.09200
C1398       C  0.93631827  0.67373979  0.34721338     0.29700
F1399       F  0.95263793  0.70603643  0.35756634    -0.19700
H1400       H  0.94748118  0.69708431  0.31437781     0.18100
H1401       H  0.88499966  0.58501901  0.35813496     0.18100
F1402       F  0.87900767  0.57622170  0.31443799    -0.19700
C1403       C  0.76391050  0.49225783  0.41381371    -0.21100
C1404       C  0.73104313  0.99118788  0.41243052    -0.09100
C1405       C  0.73053165  0.52330904  0.41023051     0.29700
C1406       C  0.76239422  0.55592246  0.41028610    -0.21100
C1407       C  0.79524988  0.55714539  0.41288789    -0.09200
C1408       C  0.79576235  0.52487217  0.41422334     0.29700
F1409       F  0.82695355  0.52471167  0.41629724    -0.19700
H1410       H  0.76490777  0.96786261  0.41551724     0.18100
H1411       H  0.76123269  0.58028247  0.40913117     0.18100
F1412       F  0.69921263  0.02324405  0.40826710    -0.19700
C1413       C  0.01013116  0.74194996  0.42834800    -0.21100
C1414       C  0.97843470  0.74359910  0.42847116    -0.09100
C1415       C  0.98094699  0.77724451  0.42872023     0.29700
C1416       C  0.51440602  0.80835253  0.42841759    -0.21100
C1417       C  0.54607203  0.80668395  0.42748317    -0.09200
C1418       C  0.54355225  0.77302272  0.42768329     0.29700
F1419       F  0.57330985  0.77001692  0.42723665    -0.19700
H1420       H  0.00908025  0.71643627  0.42811818     0.18100
H1421       H  0.51545716  0.83386675  0.42832599     0.18100
F1422       F  0.95114763  0.78016750  0.42925384    -0.19700
C1423       C  0.80052467  0.52991696  0.24912968    -0.21100
C1424       C  0.79862180  0.56135341  0.24772626    -0.09100
C1425       C  0.76504247  0.55878254  0.24588087     0.29700
C1426       C  0.73408828  0.52536145  0.24542190    -0.21100
C1427       C  0.73589206  0.99385820  0.24714496    -0.09200
C1428       C  0.76954134  0.49648840  0.24904964     0.29700
F1429       F  0.77263438  0.96687265  0.25058606    -0.19700
H1430       H  0.82612821  0.53122131  0.25062513     0.18100
H1431       H  0.70854766  0.02420014  0.24400874     0.18100
F1432       F  0.76210735  0.58846822  0.24407246    -0.19700
C1433       C  0.54798684  0.77715144  0.25661747    -0.21100
C1434       C  0.54950901  0.81003321  0.25386507    -0.09100
C1435       C  0.51748717  0.81099988  0.25199015     0.29700
C1436       C  0.98471800  0.77948142  0.25227774    -0.21100
C1437       C  0.98332773  0.74658937  0.25409884    -0.09200
C1438       C  0.01521374  0.74561526  0.25659305     0.29700
F1439       F  0.01474963  0.71421291  0.25906659    -0.19700
H1440       H  0.57220691  0.77574196  0.25822482     0.18100
H1441       H  0.96044883  0.78074244  0.25039887     0.18100
F1442       F  0.51770049  0.84231388  0.24978406    -0.19700
C1443       C  0.59424710  0.88567462  0.32113797    -0.21100
C1444       C  0.61893644  0.91799955  0.31108364    -0.09100
C1445       C  0.63767420  0.94848864  0.32458046     0.29700
C1446       C  0.63406445  0.94564082  0.34811749    -0.21100
C1447       C  0.61216775  0.91231757  0.35821897    -0.09200
C1448       C  0.59100094  0.88272635  0.34452086     0.29700
F1449       F  0.57014834  0.85013844  0.35384413    -0.19700
H1450       H  0.57999406  0.86181419  0.31096377     0.18100
H1451       H  0.65122336  0.96852367  0.35847100     0.18100
F1452       F  0.66219276  0.97986180  0.31528151    -0.19700
C1453       C  0.66032372  0.88126200  0.50015048    -0.21100
C1454       C  0.68025134  0.89230003  0.48033617    -0.09100
C1455       C  0.71660104  0.90219039  0.48109052     0.29700
C1456       C  0.73265501  0.90105655  0.50142262    -0.21100
C1457       C  0.71266860  0.88951378  0.52134377    -0.09200
C1458       C  0.67610418  0.87946170  0.52040577     0.29700
F1459       F  0.65547223  0.86839339  0.53910733    -0.19700
H1460       H  0.63232545  0.87345817  0.49986980     0.18100
H1461       H  0.76077057  0.90936732  0.50156879     0.18100
F1462       F  0.73687692  0.91398972  0.46224407    -0.19700
C1463       C  0.79466270  0.88136619  0.65699590    -0.21100
C1464       C  0.79986660  0.91087266  0.64431290    -0.09100
C1465       C  0.80819609  0.94277249  0.65543887     0.29700
C1466       C  0.80768148  0.94382767  0.67905801    -0.21100
C1467       C  0.79935028  0.91322504  0.69164269    -0.09200
C1468       C  0.79462794  0.88255685  0.68050723     0.29700
F1469       F  0.78604296  0.85247185  0.69232806    -0.17300
H1470       H  0.78749349  0.85640393  0.64868559     0.18100
H1471       H  0.81057507  0.96737739  0.68736857     0.18100
F1472       F  0.81251708  0.97141135  0.64348943    -0.19700
C1473       C  0.72906071  0.52323019  0.58846665    -0.21100
C1474       C  0.76206027  0.55506965  0.58995618    -0.09100
C1475       C  0.79348762  0.55325346  0.59208290     0.29700
C1476       C  0.79189969  0.52028755  0.59162251    -0.21100
C1477       C  0.75903957  0.98858549  0.58938798    -0.09200
C1478       C  0.72745790  0.49022692  0.58831424     0.29700
F1479       F  0.69524593  0.96017581  0.58593495    -0.19700
H1480       H  0.70441688  0.52386817  0.58696659     0.18100
H1481       H  0.81655146  0.01958218  0.59267520     0.18100
F1482       F  0.82588609  0.58326730  0.59357418    -0.19700
C1483       C  0.79571693  0.77415511  0.57814329    -0.21100
C1484       C  0.76405285  0.74106911  0.57704342    -0.09100
C1485       C  0.73121841  0.74050072  0.57548423     0.29700
C1486       C  0.73026181  0.77228146  0.57539902    -0.21100
C1487       C  0.76186620  0.80530992  0.57657473    -0.09200
C1488       C  0.79475241  0.80599054  0.57778250     0.29700
F1489       F  0.82593191  0.83731754  0.57953921    -0.19700
H1490       H  0.82130482  0.77541961  0.57944847     0.18100
H1491       H  0.70463845  0.77101904  0.57453456     0.18100
F1492       F  0.69981725  0.70925436  0.57482222    -0.19700
C1493       C  0.84573150  0.66286286  0.52217952    -0.21100
C1494       C  0.81002487  0.65546244  0.52228177    -0.09100
C1495       C  0.79154447  0.64810014  0.50161699     0.29700
C1496       C  0.80863744  0.64862852  0.48148420    -0.21100
C1497       C  0.84412291  0.65561077  0.48154258    -0.09200
C1498       C  0.86249362  0.66261854  0.50211378     0.29700
F1499       F  0.89693516  0.67014499  0.50277558    -0.19700
H1500       H  0.86072860  0.66843927  0.53774661     0.18100
H1501       H  0.79388996  0.64297196  0.46580015     0.18100
F1502       F  0.75711359  0.64058662  0.50076082    -0.19700
C1503       C  0.73219328  0.52313892  0.75925508    -0.21100
C1504       C  0.76560099  0.55459804  0.75827618    -0.09100
C1505       C  0.79661903  0.55187668  0.75733685     0.29700
C1506       C  0.79407234  0.51840605  0.75720431    -0.21100
C1507       C  0.76064662  0.98698758  0.75766209    -0.09200
C1508       C  0.72963860  0.48965488  0.75879463     0.29700
F1509       F  0.69691291  0.96000202  0.75978961    -0.19700
H1510       H  0.70783196  0.52440122  0.76000082     0.18100
H1511       H  0.81839875  0.01708703  0.75633957     0.18100
F1512       F  0.82942826  0.58145856  0.75675372    -0.19700
C1513       C  0.73163350  0.73757792  0.75005937    -0.21100
C1514       C  0.76504437  0.73944478  0.75004618    -0.09100
C1515       C  0.79620906  0.77285896  0.74884941     0.29700
C1516       C  0.79385157  0.80379091  0.74843495    -0.21100
C1517       C  0.76049082  0.80195884  0.74899667    -0.09200
C1518       C  0.72927317  0.76852303  0.74942800     0.29700
F1519       F  0.69660784  0.76570804  0.75028524    -0.19700
H1520       H  0.70721607  0.71207461  0.75081625     0.18100
H1521       H  0.81827467  0.82932183  0.74798846     0.18100
F1522       F  0.82895677  0.77579872  0.74902588    -0.19700
C1523       C  0.71450809  0.60073340  0.67973608    -0.21100
C1524       C  0.72695138  0.63171739  0.69278627    -0.09100
C1525       C  0.73524471  0.66394717  0.68214019     0.29700
C1526       C  0.73458220  0.66591194  0.65867779    -0.21100
C1527       C  0.72529488  0.63572781  0.64545798    -0.09200
C1528       C  0.71345571  0.60265563  0.65611512     0.29700
F1529       F  0.70511951  0.57321856  0.64367737    -0.19700
H1530       H  0.70871309  0.57586133  0.68763334     0.18100
H1531       H  0.74439285  0.69169096  0.65077394     0.18100
F1532       F  0.74767397  0.69437676  0.69437510    -0.19700
C1533       C  0.72961641  0.87202065  0.83469315    -0.21100
C1534       C  0.71231467  0.85671426  0.81426821    -0.09100
C1535       C  0.67884368  0.82502083  0.81489016     0.29700
C1536       C  0.66339381  0.80907627  0.83547647    -0.21100
C1537       C  0.68049718  0.82462898  0.85588468    -0.09200
C1538       C  0.71382176  0.85643566  0.85529048     0.29700
F1539       F  0.73180624  0.87193317  0.87461831    -0.19700
H1540       H  0.75541680  0.89613035  0.83473181     0.18100
H1541       H  0.63790061  0.78460289  0.83545486     0.18100
F1542       F  0.66143081  0.80866505  0.79558118    -0.19700
C1543       C  0.65315490  0.86045460  0.14866595    -0.21100
C1544       C  0.65023604  0.82651274  0.14891596    -0.09100
C1545       C  0.64847525  0.81047242  0.16982916     0.29700
C1546       C  0.65017002  0.82834495  0.18989720    -0.21100
C1547       C  0.65268242  0.86209879  0.18957237    -0.09200
C1548       C  0.65392581  0.87787461  0.16868910     0.29700
F1549       F  0.65623857  0.91026561  0.16757975    -0.19700
H1550       H  0.65411531  0.87336551  0.13284448     0.18100
H1551       H  0.64860827  0.81531207  0.20577301     0.18100
F1552       F  0.64533615  0.77772249  0.17094738    -0.19700
C1553       C  0.59111255  0.74280429  0.01466092    -0.21100
C1554       C  0.61743040  0.73862095  0.02591471    -0.09100
C1555       C  0.64051943  0.73145860  0.01333592     0.29700
C1556       C  0.63884207  0.73108966  0.98971445    -0.21100
C1557       C  0.61454150  0.73843220  0.97848910    -0.09200
C1558       C  0.58977648  0.74295558  0.99111639     0.29700
F1559       F  0.56681136  0.75122005  0.98069932    -0.19700
H1560       H  0.57377176  0.74934254  0.02409196     0.18100
H1561       H  0.65887684  0.72872363  0.98022991     0.18100
F1562       F  0.66713748  0.72884518  0.02375352    -0.19700
C1563       C  0.51667836  0.74423468  0.90910128    -0.21100
C1564       C  0.54806029  0.77770174  0.91033713    -0.09100
C1565       C  0.54504203  0.80852659  0.91135115     0.29700
C1566       C  0.01135296  0.80569004  0.91152350    -0.21100
C1567       C  0.98002622  0.77215213  0.91104165    -0.09200
C1568       C  0.98303432  0.74138977  0.90961280     0.29700
F1569       F  0.95352388  0.70856154  0.90855914    -0.19700
H1570       H  0.51809879  0.71999133  0.90828708     0.18100
H1571       H  0.00979293  0.82984053  0.91259832     0.18100
F1572       F  0.57452795  0.84138770  0.91217213    -0.19700
C1573       C  0.79583730  0.80239870  0.92891213    -0.21100
C1574       C  0.79413305  0.76963674  0.92481700    -0.09100
C1575       C  0.76086226  0.73901000  0.92144376     0.29700
C1576       C  0.72996606  0.74156286  0.92111784    -0.21100
C1577       C  0.73165218  0.77459661  0.92433557    -0.09200
C1578       C  0.76488729  0.80491951  0.92889391     0.29700
F1579       F  0.76779695  0.83723211  0.93238350    -0.19700
H1580       H  0.82134334  0.82627705  0.93171573     0.18100
H1581       H  0.70471806  0.71767017  0.91777716     0.18100
F1582       F  0.75838595  0.70709422  0.91705747    -0.19700
C1583       C  0.86144844  0.73665345  0.83648081    -0.21100
C1584       C  0.84640768  0.72039886  0.85709421    -0.09100
C1585       C  0.81491671  0.68670835  0.85680859     0.29700
C1586       C  0.79887229  0.67005201  0.83636690    -0.21100
C1587       C  0.81419735  0.68611168  0.81577092    -0.09200
C1588       C  0.84582106  0.71965666  0.81605382     0.29700
F1589       F  0.86105665  0.73675941  0.79654163    -0.19700
H1590       H  0.88544157  0.76252387  0.83616070     0.18100
H1591       H  0.77448665  0.64450509  0.83665048     0.18100
F1592       F  0.79888733  0.67021116  0.87630605    -0.19700
C1593       C  0.87620523  0.69068650  0.14843431    -0.21100
C1594       C  0.87454575  0.72240226  0.14855465    -0.09100
C1595       C  0.87384601  0.73739724  0.16932662     0.29700
C1596       C  0.87469115  0.72093752  0.18945907    -0.21100
C1597       C  0.87708610  0.68961929  0.18940117    -0.09200
C1598       C  0.87791949  0.67465634  0.16860474     0.29700
F1599       F  0.88019926  0.64454343  0.16771764    -0.19700
H1600       H  0.87717784  0.67876080  0.13263416     0.18100
H1601       H  0.87430976  0.73330306  0.20520757     0.18100
F1602       F  0.87209173  0.76779648  0.17021501    -0.19700
C1603       C  0.00871846  0.80469715  0.08176996    -0.21100
C1604       C  0.97750684  0.77157564  0.08432917    -0.09100
C1605       C  0.97990628  0.74062126  0.08656026     0.29700
C1606       C  0.51323361  0.74301713  0.08665138    -0.21100
C1607       C  0.54460533  0.77622744  0.08438816    -0.09200
C1608       C  0.54205234  0.80710049  0.08167920     0.29700
F1609       F  0.57165023  0.83969195  0.07971583    -0.19700
H1610       H  0.00730314  0.82886604  0.07999951     0.18100
H1611       H  0.51446011  0.71880094  0.08874974     0.18100
F1612       F  0.95027977  0.70835522  0.08968580    -0.19700
C1613       C  0.79498815  0.80573754  0.09228355    -0.21100
C1614       C  0.79292678  0.77228947  0.09110400    -0.09100
C1615       C  0.75920662  0.74137809  0.09006995     0.29700
C1616       C  0.72834914  0.74405460  0.09017768    -0.21100
C1617       C  0.73043871  0.77750681  0.09099728    -0.09200
C1618       C  0.76410764  0.80842145  0.09206936     0.29700
F1619       F  0.76721900  0.84114956  0.09331338    -0.19700
H1620       H  0.82063944  0.83000673  0.09306688     0.18100
H1621       H  0.70268063  0.71980990  0.08929551     0.18100
F1622       F  0.75594245  0.70855843  0.08925289    -0.19700
C1623       C  0.93244906  0.80293461  0.01615554    -0.21100
C1624       C  0.90841628  0.81124271  0.02647406    -0.09100
C1625       C  0.88931415  0.82287812  0.01310715     0.29700
C1626       C  0.89182994  0.82278236  0.98949901    -0.21100
C1627       C  0.91309958  0.81073141  0.97920743    -0.09200
C1628       C  0.93463134  0.80240809  0.99273278     0.29700
F1629       F  0.95482203  0.78999233  0.98326759    -0.19700
H1630       H  0.94693960  0.79337064  0.02621644     0.18100
H1631       H  0.87441148  0.82847510  0.97931921     0.18100
F1632       F  0.86548342  0.83048992  0.02268398    -0.19700
loop_ 
_geom_bond_atom_site_label_1 
_geom_bond_atom_site_label_2 
_geom_bond_distance 
_geom_bond_site_symmetry_2 
_ccdc_geom_bond_type 
O1           Ni9   1.917       .  S
O1           C11   1.282       .  A
O2           Ni9   1.925       .  S
O2           C12   1.284       .  A
O3           Ni9   1.902       .  S
O3           C13   1.278       .  A
O4           Ni9   1.904       .  S
O4           C14   1.277       .  A
O5          Ni10   1.940       .  S
O5           C14   1.287       .  A
O6          Ni10   1.937       .  S
O6           C13   1.284       .  A
O7          Ni10   1.903       .  S
O7           C12   1.278       .  A
O8          Ni10   1.895       .  S
O8           C11   1.277       .  A
Ni9         Ni10   2.390       .  S
C11         C380   1.464       .  S
C12         C390   1.478       .  S
C13         C400   1.471       .  S
C14         C370   1.485       .  S
O15         Ni23   1.925       .  S
O15          C25   1.284       .  A
O16         Ni23   1.928       .  S
O16          C26   1.284       .  A
O17         Ni23   1.903       .  S
O17          C27   1.278       .  A
O18         Ni23   1.904       .  S
O18          C28   1.277       .  A
O19         Ni24   1.945       .  S
O19          C28   1.288       .  A
O20         Ni24   1.938       .  S
O20          C27   1.284       .  A
O21         Ni24   1.910       .  S
O21          C26   1.279       .  A
O22         Ni24   1.898       .  S
O22          C25   1.277       .  A
Ni23        Ni24   2.388       .  S
C25         C350   1.469       .  S
C26         C343   1.482       .  S
C27         C403   1.472       .  S
C28         C360   1.489       .  S
O29         Ni37   1.920       .  S
O29          C39   1.283       .  A
O30         Ni37   1.926       .  S
O30          C40   1.284       .  A
O31         Ni37   1.901       .  S
O31          C41   1.277       .  A
O32         Ni37   1.902       .  S
O32          C42   1.277       .  A
O33         Ni38   1.944       .  S
O33          C42   1.288       .  A
O34         Ni38   1.940       .  S
O34          C41   1.285       .  A
O35         Ni38   1.901       .  S
O35          C40   1.278       .  A
O36         Ni38   1.893       .  S
O36          C39   1.277       .  A
Ni37        Ni38   2.388       .  S
C39         C383   1.471       .  S
C40         C393   1.476       .  S
C41         C330   1.471       .  S
C42         C320   1.489       .  S
O43         Ni51   1.927       .  S
O43          C53   1.284       .  A
O44         Ni51   1.930       .  S
O44          C54   1.285       .  A
O45         Ni51   1.903       .  S
O45          C55   1.277       .  A
O46         Ni51   1.906       .  S
O46          C56   1.278       .  A
O47         Ni52   1.939       .  S
O47          C56   1.287       .  A
O48         Ni52   1.936       .  S
O48          C55   1.284       .  A
O49         Ni52   1.907       .  S
O49          C54   1.279       .  A
O50         Ni52   1.898       .  S
O50          C53   1.278       .  A
Ni51        Ni52   2.387       .  S
C53         C353   1.478       .  S
C54         C340   1.484       .  S
C55         C333   1.470       .  S
C56         C313   1.485       .  S
O57         Ni65   1.919       .  S
O57          C67   1.283       .  A
O58         Ni65   1.927       .  S
O58          C68   1.284       .  A
O59         Ni65   1.903       .  S
O59          C69   1.278       .  A
O60         Ni65   1.905       .  S
O60          C70   1.278       .  A
O61         Ni66   1.943       .  S
O61          C70   1.288       .  A
O62         Ni66   1.939       .  S
O62          C69   1.284       .  A
O63         Ni66   1.907       .  S
O63          C68   1.279       .  A
O64         Ni66   1.898       .  S
O64          C67   1.277       .  A
Ni65        Ni66   2.388       .  S
C67         C290   1.471       .  S
C68         C280   1.482       .  S
C69         C300   1.472       .  S
C70         C363   1.488       .  S
O71         Ni79   1.923       .  S
O71          C81   1.283       .  A
O72         Ni79   1.925       .  S
O72          C82   1.284       .  A
O73         Ni79   1.903       .  S
O73          C83   1.278       .  A
O74         Ni79   1.905       .  S
O74          C84   1.278       .  A
O75         Ni80   1.943       .  S
O75          C84   1.288       .  A
O76         Ni80   1.939       .  S
O76          C83   1.284       .  A
O77         Ni80   1.911       .  S
O77          C82   1.280       .  A
O78         Ni80   1.901       .  S
O78          C81   1.278       .  A
Ni79        Ni80   2.386       .  S
C81         C250   1.476       .  S
C82         C260   1.484       .  S
C83         C303   1.472       .  S
C84         C270   1.492       .  S
O85         Ni93   1.921       .  S
O85          C95   1.283       .  A
O86         Ni93   1.927       .  S
O86          C96   1.284       .  A
O87         Ni93   1.904       .  S
O87          C97   1.278       .  A
O88         Ni93   1.905       .  S
O88          C98   1.278       .  A
O89         Ni94   1.939       .  S
O89          C98   1.287       .  A
O90         Ni94   1.935       .  S
O90          C97   1.283       .  A
O91         Ni94   1.905       .  S
O91          C96   1.278       .  A
O92         Ni94   1.897       .  S
O92          C95   1.277       .  A
Ni93        Ni94   2.389       .  S
C95         C293   1.470       .  S
C96         C283   1.479       .  S
C97         C243   1.469       .  S
C98         C310   1.487       .  S
O99        Ni107   1.920       .  S
O99         C109   1.282       .  A
O100       Ni107   1.921       .  S
O100        C110   1.283       .  A
O101       Ni107   1.904       .  S
O101        C111   1.278       .  A
O102       Ni107   1.904       .  S
O102        C112   1.278       .  A
O103       Ni108   1.940       .  S
O103        C112   1.287       .  A
O104       Ni108   1.933       .  S
O104        C111   1.283       .  A
O105       Ni108   1.915       .  S
O105        C110   1.280       .  A
O106       Ni108   1.903       .  S
O106        C109   1.279       .  A
Ni107      Ni108   2.388       .  S
C109        C253   1.472       .  S
C110        C263   1.481       .  S
C111        C240   1.469       .  S
C112        C233   1.491       .  S
O113       Ni121   1.919       .  S
O113        C123   1.283       .  A
O114       Ni121   1.928       .  S
O114        C124   1.284       .  A
O115       Ni121   1.902       .  S
O115        C125   1.278       .  A
O116       Ni121   1.906       .  S
O116        C126   1.278       .  A
O117       Ni122   1.939       .  S
O117        C126   1.287       .  A
O118       Ni122   1.936       .  S
O118        C125   1.283       .  A
O119       Ni122   1.906       .  S
O119        C124   1.279       .  A
O120       Ni122   1.896       .  S
O120        C123   1.277       .  A
Ni121      Ni122   2.388       .  S
C123        C210   1.471       .  S
C124        C203   1.482       .  S
C125        C220   1.470       .  S
C126        C323   1.486       .  S
O127       Ni135   1.924       .  S
O127        C137   1.284       .  A
O128       Ni135   1.930       .  S
O128        C138   1.285       .  A
O129       Ni135   1.902       .  S
O129        C139   1.278       .  A
O130       Ni135   1.903       .  S
O130        C140   1.277       .  A
O131       Ni136   1.939       .  S
O131        C140   1.286       .  A
O132       Ni136   1.934       .  S
O132        C139   1.283       .  A
O133       Ni136   1.914       .  S
O133        C138   1.280       .  A
O134       Ni136   1.904       .  S
O134        C137   1.278       .  A
Ni135      Ni136   2.388       .  S
C137        C180   1.474       .  S
C138        C193   1.487       .  S
C139        C223   1.470       .  S
C140        C230   1.477       .  S
O141       Ni149   1.919       .  S
O141        C151   1.283       .  A
O142       Ni149   1.926       .  S
O142        C152   1.284       .  A
O143       Ni149   1.898       .  S
O143        C153   1.277       .  A
O144       Ni149   1.899       .  S
O144        C154   1.277       .  A
O145       Ni150   1.945       .  S
O145        C154   1.288       .  A
O146       Ni150   1.939       .  S
O146        C153   1.284       .  A
O147       Ni150   1.905       .  S
O147        C152   1.278       .  A
O148       Ni150   1.898       .  S
O148        C151   1.277       .  A
Ni149      Ni150   2.389       .  S
C151        C213   1.467       .  S
C152        C200   1.478       .  S
C153        C170   1.471       .  S
C154        C373   1.487       .  S
O155       Ni163   1.926       .  S
O155        C165   1.284       .  A
O156       Ni163   1.931       .  S
O156        C166   1.285       .  A
O157       Ni163   1.902       .  S
O157        C167   1.278       .  A
O158       Ni163   1.906       .  S
O158        C168   1.277       .  A
O159       Ni164   1.941       .  S
O159        C168   1.287       .  A
O160       Ni164   1.937       .  S
O160        C167   1.284       .  A
O161       Ni164   1.912       .  S
O161        C166   1.280       .  A
O162       Ni164   1.904       .  S
O162        C165   1.278       .  A
Ni163      Ni164   2.387       .  S
C165        C183   1.479       .  S
C166        C190   1.486       .  S
C167        C173   1.472       .  S
C168        C273   1.483       .  S
C169        C170   1.403       .  A
C169        C174   1.393       .  A
C169        H176   1.084       .  S
C170        C171   1.405       .  A
C171        C172   1.407       .  A
C171        F178   1.357       .  S
C172        C173   1.407       .  A
C172        H177   1.083       .  S
C173        C174   1.403       .  A
C174        F175   1.358       .  S
C179        C184   1.397   1_565  A
C179        C588   1.401       .  A
C179        H594   1.083       .  S
C180        C587   1.401       .  A
C180        C589   1.408       .  A
C181        C182   1.397       .  A
C181        C588   1.408   1_545  A
C181        F596   1.358       .  S
C182        C183   1.403       .  A
C182        H187   1.083       .  S
C183        C184   1.411       .  A
C184        F185   1.358       .  S
H186        C587   1.083       .  S
F188        C589   1.358       .  S
C189        C190   1.408       .  A
C189       C1010   1.400       .  A
C189        H196   1.083       .  S
C190        C191   1.406       .  A
C191       C1008   1.401       .  A
C191        F198   1.357       .  S
C192        C193   1.409       .  A
C192       C1007   1.401   1_455  A
C192        H197   1.083       .  S
C193        C194   1.407       .  A
C194       C1005   1.400       .  A
C194        F195   1.357       .  S
C199        C200   1.407       .  A
C199        C204   1.398   1_545  A
C199        H206   1.084       .  S
C200        C201   1.404       .  A
C201        C202   1.398       .  A
C201        F208   1.358       .  S
C202        C611   1.408   1_545  A
C202        H615   1.083       .  S
C203        C610   1.408       .  A
C203        C612   1.406       .  A
C204        C611   1.406       .  A
C204        F613   1.357       .  S
F205        C612   1.357       .  S
H207        C610   1.083       .  S
C209        C210   1.402       .  A
C209       C1030   1.394       .  A
C209        H216   1.083       .  S
C210        C211   1.410       .  A
C211       C1028   1.393   1_455  A
C211        F218   1.358       .  S
C212        C213   1.399       .  A
C212       C1027   1.393       .  A
C212        H217   1.083       .  S
C213        C214   1.408       .  A
C214       C1025   1.394       .  A
C214        F215   1.358       .  S
C219        C220   1.403       .  A
C219        C224   1.395       .  A
C219        H226   1.084       .  S
C220        C221   1.404       .  A
C221        C222   1.405       .  A
C221        F228   1.357       .  S
C222        C223   1.407       .  A
C222        H227   1.083       .  S
C223        C224   1.402       .  A
C224        F225   1.358       .  S
C229        C230   1.398       .  A
C229        C234   1.400       .  A
C229        H236   1.083       .  S
C230        C231   1.409       .  A
C231        C232   1.402       .  A
C231        F238   1.358       .  S
C232        C233   1.405       .  A
C232        H237   1.082       .  S
C233        C234   1.416       .  A
C234        F235   1.357       .  S
C239        C240   1.401       .  A
C239        C244   1.397       .  A
C239        H246   1.083       .  S
C240        C241   1.407       .  A
C241        C242   1.404       .  A
C241        F248   1.358       .  S
C242        C243   1.403       .  A
C242        H247   1.083       .  S
C243        C244   1.405       .  A
C244        F245   1.358       .  S
C249        C250   1.407       .  A
C249        C254   1.396   1_545  A
C249        H256   1.083       .  S
C250        C251   1.405       .  A
C251        C252   1.395       .  A
C251        F258   1.357       .  S
C252        C661   1.405   1_545  A
C252        H665   1.083       .  S
C253        C660   1.405       .  A
C253        C662   1.404       .  A
C254        C661   1.404       .  A
C254        F663   1.358       .  S
F255        C662   1.358       .  S
H257        C660   1.083       .  S
C259        C260   1.405       .  A
C259        C264   1.400       .  A
C259        H266   1.083       .  S
C260        C261   1.411       .  A
C261        C262   1.398       .  A
C261        F268   1.357       .  S
C262        C263   1.403       .  A
C262        H267   1.083       .  S
C263        C264   1.409       .  A
C264        F265   1.358       .  S
C269        C270   1.412       .  A
C269        C274   1.401       .  A
C269        H276   1.082       .  S
C270        C271   1.407       .  A
C271        C272   1.403       .  A
C271        F278   1.357       .  S
C272        C273   1.409       .  A
C272        H277   1.082       .  S
C273        C274   1.401       .  A
C274        F275   1.357       .  S
C279        C280   1.408       .  A
C279        C284   1.399   1_545  A
C279        H286   1.083       .  S
C280        C281   1.406       .  A
C281        C282   1.398       .  A
C281        F288   1.357       .  S
C282        C691   1.407   1_545  A
C282        H695   1.083       .  S
C283        C690   1.407       .  A
C283        C692   1.405       .  A
C284        C691   1.405       .  A
C284        F693   1.357       .  S
F285        C692   1.357       .  S
H287        C690   1.083       .  S
C289        C290   1.407       .  A
C289        C294   1.394       .  A
C289        H296   1.083       .  S
C290        C291   1.404       .  A
C291        C292   1.394       .  A
C291        F298   1.358       .  S
C292        C293   1.406       .  A
C292        H297   1.083       .  S
C293        C294   1.403       .  A
C294        F295   1.358       .  S
C299        C300   1.403       .  A
C299        C304   1.406       .  A
C299        H306   1.083       .  S
C300        C301   1.406       .  A
C301        C302   1.396       .  A
C301        F308   1.358       .  S
C302        C303   1.401       .  A
C302        H307   1.084       .  S
C303        C304   1.408       .  A
C304        F305   1.357       .  S
C309        C310   1.402       .  A
C309        C314   1.401       .  A
C309        H316   1.083       .  S
C310        C311   1.414       .  A
C311        C312   1.401       .  A
C311        F318   1.358       .  S
C312        C313   1.401       .  A
C312        H317   1.083       .  S
C313        C314   1.412       .  A
C314        F315   1.358       .  S
C319        C320   1.411       .  A
C319        C324   1.400       .  A
C319        H326   1.082       .  S
C320        C321   1.405       .  A
C321        C322   1.403       .  A
C321        F328   1.357       .  S
C322        C323   1.411       .  A
C322        H327   1.083       .  S
C323        C324   1.403       .  A
C324        F325   1.357       .  S
C329        C330   1.404       .  A
C329        C334   1.399   1_554  A
C329        H336   1.084       .  S
C330        C331   1.404       .  A
C331        C332   1.403   1_554  A
C331        F338   1.357       .  S
C332        C333   1.405       .  A
C332        H337   1.083       .  S
C333        C334   1.403       .  A
C334        F335   1.358       .  S
C339        C340   1.409       .  A
C339       C1160   1.398   1_455  A
C339        H346   1.083       .  S
C340        C341   1.406       .  A
C341       C1158   1.400       .  A
C341        F348   1.357       .  S
C342        C343   1.408       .  A
C342       C1157   1.400       .  A
C342        H347   1.083       .  S
C343        C344   1.405       .  A
C344       C1155   1.398       .  A
C344        F345   1.357       .  S
C349        C350   1.405       .  A
C349        C354   1.397       .  A
C349        H356   1.083       .  S
C350        C351   1.401       .  A
C351        C352   1.395       .  A
C351        F358   1.358       .  S
C352        C353   1.409       .  A
C352        H357   1.083       .  S
C353        C354   1.406       .  A
C354        F355   1.357       .  S
C359        C360   1.402       .  A
C359        C364   1.402       .  A
C359        H366   1.083       .  S
C360        C361   1.414       .  A
C361        C362   1.403       .  A
C361        F368   1.358       .  S
C362        C363   1.402       .  A
C362        H367   1.083       .  S
C363        C364   1.414       .  A
C364        F365   1.358       .  S
C369        C370   1.411       .  A
C369        C374   1.403       .  A
C369        H376   1.083       .  S
C370        C371   1.402       .  A
C371        C372   1.400       .  A
C371        F378   1.357       .  S
C372        C373   1.411       .  A
C372        H377   1.083       .  S
C373        C374   1.404       .  A
C374        F375   1.357       .  S
C379        C380   1.404       .  A
C379       C1200   1.393       .  A
C379        H386   1.083       .  S
C380        C381   1.401       .  A
C381       C1198   1.393       .  A
C381        F388   1.358       .  S
C382        C383   1.408       .  A
C382       C1197   1.393   1_455  A
C382        H387   1.083       .  S
C383        C384   1.404       .  A
C384       C1195   1.393       .  A
C384        F385   1.357       .  S
C389        C390   1.408       .  A
C389        C394   1.397       .  A
C389        H396   1.083       .  S
C390        C391   1.405       .  A
C391        C392   1.396       .  A
C391        F398   1.357       .  S
C392        C393   1.407       .  A
C392        H397   1.083       .  S
C393        C394   1.404       .  A
C394        F395   1.357       .  S
C399        C400   1.403       .  A
C399        C404   1.395   1_554  A
C399        H406   1.084       .  S
C400        C401   1.404       .  A
C401        C402   1.407   1_554  A
C401        F408   1.357       .  S
C402        C403   1.407       .  A
C402        H407   1.083       .  S
C403        C404   1.402       .  A
C404        F405   1.358       .  S
O409       Ni417   1.917       .  S
O409        C419   1.282       .  A
O410       Ni417   1.925       .  S
O410        C420   1.284       .  A
O411       Ni417   1.902       .  S
O411        C421   1.278       .  A
O412       Ni417   1.904       .  S
O412        C422   1.277       .  A
O413       Ni418   1.940       .  S
O413        C422   1.287       .  A
O414       Ni418   1.937       .  S
O414        C421   1.284       .  A
O415       Ni418   1.903       .  S
O415        C420   1.278       .  A
O416       Ni418   1.895       .  S
O416        C419   1.277       .  A
Ni417      Ni418   2.390       .  S
C419        C788   1.464       .  S
C420        C798   1.478       .  S
C421        C808   1.471       .  S
C422        C778   1.485       .  S
O423       Ni431   1.925       .  S
O423        C433   1.284       .  A
O424       Ni431   1.928       .  S
O424        C434   1.284       .  A
O425       Ni431   1.903       .  S
O425        C435   1.278       .  A
O426       Ni431   1.904       .  S
O426        C436   1.277       .  A
O427       Ni432   1.945       .  S
O427        C436   1.288       .  A
O428       Ni432   1.938       .  S
O428        C435   1.284       .  A
O429       Ni432   1.910       .  S
O429        C434   1.279       .  A
O430       Ni432   1.898       .  S
O430        C433   1.277       .  A
Ni431      Ni432   2.388       .  S
C433        C758   1.469       .  S
C434        C751   1.482       .  S
C435        C811   1.472       .  S
C436        C768   1.489       .  S
O437       Ni445   1.920       .  S
O437        C447   1.283       .  A
O438       Ni445   1.926       .  S
O438        C448   1.284       .  A
O439       Ni445   1.901       .  S
O439        C449   1.277       .  A
O440       Ni445   1.902       .  S
O440        C450   1.277       .  A
O441       Ni446   1.944       .  S
O441        C450   1.288       .  A
O442       Ni446   1.940       .  S
O442        C449   1.285       .  A
O443       Ni446   1.901       .  S
O443        C448   1.278       .  A
O444       Ni446   1.893       .  S
O444        C447   1.277       .  A
Ni445      Ni446   2.388       .  S
C447        C791   1.471       .  S
C448        C801   1.476       .  S
C449        C738   1.471       .  S
C450        C728   1.489       .  S
O451       Ni459   1.927       .  S
O451        C461   1.284       .  A
O452       Ni459   1.930       .  S
O452        C462   1.285       .  A
O453       Ni459   1.903       .  S
O453        C463   1.277       .  A
O454       Ni459   1.906       .  S
O454        C464   1.278       .  A
O455       Ni460   1.939       .  S
O455        C464   1.287       .  A
O456       Ni460   1.936       .  S
O456        C463   1.284       .  A
O457       Ni460   1.907       .  S
O457        C462   1.279       .  A
O458       Ni460   1.898       .  S
O458        C461   1.278       .  A
Ni459      Ni460   2.387       .  S
C461        C761   1.478       .  S
C462        C748   1.484       .  S
C463        C741   1.470       .  S
C464        C721   1.485       .  S
O465       Ni473   1.919       .  S
O465        C475   1.283       .  A
O466       Ni473   1.927       .  S
O466        C476   1.284       .  A
O467       Ni473   1.903       .  S
O467        C477   1.278       .  A
O468       Ni473   1.905       .  S
O468        C478   1.278       .  A
O469       Ni474   1.943       .  S
O469        C478   1.288       .  A
O470       Ni474   1.939       .  S
O470        C477   1.284       .  A
O471       Ni474   1.907       .  S
O471        C476   1.279       .  A
O472       Ni474   1.898       .  S
O472        C475   1.277       .  A
Ni473      Ni474   2.388       .  S
C475        C698   1.471       .  S
C476        C688   1.482       .  S
C477        C708   1.472       .  S
C478        C771   1.488       .  S
O479       Ni487   1.923       .  S
O479        C489   1.283       .  A
O480       Ni487   1.925       .  S
O480        C490   1.284       .  A
O481       Ni487   1.903       .  S
O481        C491   1.278       .  A
O482       Ni487   1.905       .  S
O482        C492   1.278       .  A
O483       Ni488   1.943       .  S
O483        C492   1.288       .  A
O484       Ni488   1.939       .  S
O484        C491   1.284       .  A
O485       Ni488   1.911       .  S
O485        C490   1.280       .  A
O486       Ni488   1.901       .  S
O486        C489   1.278       .  A
Ni487      Ni488   2.386       .  S
C489        C658   1.476       .  S
C490        C668   1.484       .  S
C491        C711   1.472       .  S
C492        C678   1.492       .  S
O493       Ni501   1.921       .  S
O493        C503   1.283       .  A
O494       Ni501   1.927       .  S
O494        C504   1.284       .  A
O495       Ni501   1.904       .  S
O495        C505   1.278       .  A
O496       Ni501   1.905       .  S
O496        C506   1.278       .  A
O497       Ni502   1.939       .  S
O497        C506   1.287       .  A
O498       Ni502   1.935       .  S
O498        C505   1.283       .  A
O499       Ni502   1.905       .  S
O499        C504   1.278       .  A
O500       Ni502   1.897       .  S
O500        C503   1.277       .  A
Ni501      Ni502   2.389       .  S
C503        C701   1.470       .  S
C504        C691   1.479       .  S
C505        C651   1.469       .  S
C506        C718   1.487       .  S
O507       Ni515   1.920       .  S
O507        C517   1.282       .  A
O508       Ni515   1.921       .  S
O508        C518   1.283       .  A
O509       Ni515   1.904       .  S
O509        C519   1.278       .  A
O510       Ni515   1.904       .  S
O510        C520   1.278       .  A
O511       Ni516   1.940       .  S
O511        C520   1.287       .  A
O512       Ni516   1.933       .  S
O512        C519   1.283       .  A
O513       Ni516   1.915       .  S
O513        C518   1.280       .  A
O514       Ni516   1.903       .  S
O514        C517   1.279       .  A
Ni515      Ni516   2.388       .  S
C517        C661   1.472       .  S
C518        C671   1.481       .  S
C519        C648   1.469       .  S
C520        C641   1.491       .  S
O521       Ni529   1.919       .  S
O521        C531   1.283       .  A
O522       Ni529   1.928       .  S
O522        C532   1.284       .  A
O523       Ni529   1.902       .  S
O523        C533   1.278       .  A
O524       Ni529   1.906       .  S
O524        C534   1.278       .  A
O525       Ni530   1.939       .  S
O525        C534   1.287       .  A
O526       Ni530   1.936       .  S
O526        C533   1.283       .  A
O527       Ni530   1.906       .  S
O527        C532   1.279       .  A
O528       Ni530   1.896       .  S
O528        C531   1.277       .  A
Ni529      Ni530   2.388       .  S
C531        C618   1.471       .  S
C532        C611   1.482       .  S
C533        C628   1.470       .  S
C534        C731   1.486       .  S
O535       Ni543   1.924       .  S
O535        C545   1.284       .  A
O536       Ni543   1.930       .  S
O536        C546   1.285       .  A
O537       Ni543   1.902       .  S
O537        C547   1.278       .  A
O538       Ni543   1.903       .  S
O538        C548   1.277       .  A
O539       Ni544   1.939       .  S
O539        C548   1.286       .  A
O540       Ni544   1.934       .  S
O540        C547   1.283       .  A
O541       Ni544   1.914       .  S
O541        C546   1.280       .  A
O542       Ni544   1.904       .  S
O542        C545   1.278       .  A
Ni543      Ni544   2.388       .  S
C545        C588   1.474       .  S
C546        C601   1.487       .  S
C547        C631   1.470       .  S
C548        C638   1.477       .  S
O549       Ni557   1.919       .  S
O549        C559   1.283       .  A
O550       Ni557   1.926       .  S
O550        C560   1.284       .  A
O551       Ni557   1.898       .  S
O551        C561   1.277       .  A
O552       Ni557   1.899       .  S
O552        C562   1.277       .  A
O553       Ni558   1.945       .  S
O553        C562   1.288       .  A
O554       Ni558   1.939       .  S
O554        C561   1.284       .  A
O555       Ni558   1.905       .  S
O555        C560   1.278       .  A
O556       Ni558   1.898       .  S
O556        C559   1.277       .  A
Ni557      Ni558   2.389       .  S
C559        C621   1.467       .  S
C560        C608   1.478       .  S
C561        C578   1.471       .  S
C562        C781   1.487       .  S
O563       Ni571   1.926       .  S
O563        C573   1.284       .  A
O564       Ni571   1.931       .  S
O564        C574   1.285       .  A
O565       Ni571   1.902       .  S
O565        C575   1.278       .  A
O566       Ni571   1.906       .  S
O566        C576   1.277       .  A
O567       Ni572   1.941       .  S
O567        C576   1.287       .  A
O568       Ni572   1.937       .  S
O568        C575   1.284       .  A
O569       Ni572   1.912       .  S
O569        C574   1.280       .  A
O570       Ni572   1.904       .  S
O570        C573   1.278       .  A
Ni571      Ni572   2.387       .  S
C573        C591   1.479       .  S
C574        C598   1.486       .  S
C575        C581   1.472       .  S
C576        C681   1.483       .  S
C577        C578   1.403       .  A
C577        C582   1.393       .  A
C577        H584   1.084       .  S
C578        C579   1.405       .  A
C579        C580   1.407       .  A
C579        F586   1.357       .  S
C580        C581   1.407       .  A
C580        H585   1.083       .  S
C581        C582   1.403       .  A
C582        F583   1.358       .  S
C587        C592   1.397       .  A
C589        C590   1.397       .  A
C590        C591   1.403       .  A
C590        H595   1.083       .  S
C591        C592   1.411       .  A
C592        F593   1.358       .  S
C597        C598   1.408       .  A
C597       C1418   1.400       .  A
C597        H604   1.083       .  S
C598        C599   1.406       .  A
C599       C1416   1.401       .  A
C599        F606   1.357       .  S
C600       C1415   1.401   1_455  A
C600        C601   1.409       .  A
C600        H605   1.083       .  S
C601        C602   1.407       .  A
C602       C1413   1.400       .  A
C602        F603   1.357       .  S
C607        C608   1.407       .  A
C607        C612   1.398       .  A
C607        H614   1.084       .  S
C608        C609   1.404       .  A
C609        C610   1.398       .  A
C609        F616   1.358       .  S
C617        C618   1.402       .  A
C617       C1438   1.394       .  A
C617        H624   1.083       .  S
C618        C619   1.410       .  A
C619       C1436   1.393   1_455  A
C619        F626   1.358       .  S
C620       C1435   1.393       .  A
C620        C621   1.399       .  A
C620        H625   1.083       .  S
C621        C622   1.408       .  A
C622       C1433   1.394       .  A
C622        F623   1.358       .  S
C627        C628   1.403       .  A
C627        C632   1.395       .  A
C627        H634   1.084       .  S
C628        C629   1.404       .  A
C629        C630   1.405       .  A
C629        F636   1.357       .  S
C630        C631   1.407       .  A
C630        H635   1.083       .  S
C631        C632   1.402       .  A
C632        F633   1.358       .  S
C637        C638   1.398       .  A
C637        C642   1.400       .  A
C637        H644   1.083       .  S
C638        C639   1.409       .  A
C639        C640   1.402       .  A
C639        F646   1.358       .  S
C640        C641   1.405       .  A
C640        H645   1.082       .  S
C641        C642   1.416       .  A
C642        F643   1.357       .  S
C647        C648   1.401       .  A
C647        C652   1.397       .  A
C647        H654   1.083       .  S
C648        C649   1.407       .  A
C649        C650   1.404       .  A
C649        F656   1.358       .  S
C650        C651   1.403       .  A
C650        H655   1.083       .  S
C651        C652   1.405       .  A
C652        F653   1.358       .  S
C657        C658   1.407       .  A
C657        C662   1.396       .  A
C657        H664   1.083       .  S
C658        C659   1.405       .  A
C659        C660   1.395       .  A
C659        F666   1.357       .  S
C667        C668   1.405       .  A
C667        C672   1.400       .  A
C667        H674   1.083       .  S
C668        C669   1.411       .  A
C669        C670   1.398       .  A
C669        F676   1.357       .  S
C670        C671   1.403       .  A
C670        H675   1.083       .  S
C671        C672   1.409       .  A
C672        F673   1.358       .  S
C677        C678   1.412       .  A
C677        C682   1.401       .  A
C677        H684   1.082       .  S
C678        C679   1.407       .  A
C679        C680   1.403       .  A
C679        F686   1.357       .  S
C680        C681   1.409       .  A
C680        H685   1.082       .  S
C681        C682   1.401       .  A
C682        F683   1.357       .  S
C687        C688   1.408       .  A
C687        C692   1.399       .  A
C687        H694   1.083       .  S
C688        C689   1.406       .  A
C689        C690   1.398       .  A
C689        F696   1.357       .  S
C697        C698   1.407       .  A
C697        C702   1.394       .  A
C697        H704   1.083       .  S
C698        C699   1.404       .  A
C699        C700   1.394       .  A
C699        F706   1.358       .  S
C700        C701   1.406       .  A
C700        H705   1.083       .  S
C701        C702   1.403       .  A
C702        F703   1.358       .  S
C707        C708   1.403       .  A
C707        C712   1.406       .  A
C707        H714   1.083       .  S
C708        C709   1.406       .  A
C709        C710   1.396       .  A
C709        F716   1.358       .  S
C710        C711   1.401       .  A
C710        H715   1.084       .  S
C711        C712   1.408       .  A
C712        F713   1.357       .  S
C717        C718   1.402       .  A
C717        C722   1.401       .  A
C717        H724   1.083       .  S
C718        C719   1.414       .  A
C719        C720   1.401       .  A
C719        F726   1.358       .  S
C720        C721   1.401       .  A
C720        H725   1.083       .  S
C721        C722   1.412       .  A
C722        F723   1.358       .  S
C727        C728   1.411       .  A
C727        C732   1.400       .  A
C727        H734   1.082       .  S
C728        C729   1.405       .  A
C729        C730   1.403       .  A
C729        F736   1.357       .  S
C730        C731   1.411       .  A
C730        H735   1.083       .  S
C731        C732   1.403       .  A
C732        F733   1.357       .  S
C737        C738   1.404       .  A
C737        C742   1.399   1_554  A
C737        H744   1.084       .  S
C738        C739   1.404       .  A
C739        C740   1.403   1_554  A
C739        F746   1.357       .  S
C740        C741   1.405       .  A
C740        H745   1.083       .  S
C741        C742   1.403       .  A
C742        F743   1.358       .  S
C747        C748   1.409       .  A
C747       C1568   1.398   1_455  A
C747        H754   1.083       .  S
C748        C749   1.406       .  A
C749       C1566   1.400       .  A
C749        F756   1.357       .  S
C750       C1565   1.400       .  A
C750        C751   1.408       .  A
C750        H755   1.083       .  S
C751        C752   1.405       .  A
C752       C1563   1.398       .  A
C752        F753   1.357       .  S
C757        C758   1.405       .  A
C757        C762   1.397       .  A
C757        H764   1.083       .  S
C758        C759   1.401       .  A
C759        C760   1.395       .  A
C759        F766   1.358       .  S
C760        C761   1.409       .  A
C760        H765   1.083       .  S
C761        C762   1.406       .  A
C762        F763   1.357       .  S
C767        C768   1.402       .  A
C767        C772   1.402       .  A
C767        H774   1.083       .  S
C768        C769   1.414       .  A
C769        C770   1.403       .  A
C769        F776   1.358       .  S
C770        C771   1.402       .  A
C770        H775   1.083       .  S
C771        C772   1.414       .  A
C772        F773   1.358       .  S
C777        C778   1.411       .  A
C777        C782   1.403       .  A
C777        H784   1.083       .  S
C778        C779   1.402       .  A
C779        C780   1.400       .  A
C779        F786   1.357       .  S
C780        C781   1.411       .  A
C780        H785   1.083       .  S
C781        C782   1.404       .  A
C782        F783   1.357       .  S
C787        C788   1.404       .  A
C787       C1608   1.393       .  A
C787        H794   1.083       .  S
C788        C789   1.401       .  A
C789       C1606   1.393       .  A
C789        F796   1.358       .  S
C790       C1605   1.393   1_455  A
C790        C791   1.408       .  A
C790        H795   1.083       .  S
C791        C792   1.404       .  A
C792       C1603   1.393       .  A
C792        F793   1.357       .  S
C797        C798   1.408       .  A
C797        C802   1.397       .  A
C797        H804   1.083       .  S
C798        C799   1.405       .  A
C799        C800   1.396       .  A
C799        F806   1.357       .  S
C800        C801   1.407       .  A
C800        H805   1.083       .  S
C801        C802   1.404       .  A
C802        F803   1.357       .  S
C807        C808   1.403       .  A
C807        C812   1.395   1_554  A
C807        H814   1.084       .  S
C808        C809   1.404       .  A
C809        C810   1.407   1_554  A
C809        F816   1.357       .  S
C810        C811   1.407       .  A
C810        H815   1.083       .  S
C811        C812   1.402       .  A
C812        F813   1.358       .  S
O817       Ni825   1.917       .  S
O817        C827   1.282       .  A
O818       Ni825   1.925       .  S
O818        C828   1.284       .  A
O819       Ni825   1.902       .  S
O819        C829   1.278       .  A
O820       Ni825   1.904       .  S
O820        C830   1.277       .  A
O821       Ni826   1.940       .  S
O821        C830   1.287       .  A
O822       Ni826   1.937       .  S
O822        C829   1.284       .  A
O823       Ni826   1.903       .  S
O823        C828   1.278       .  A
O824       Ni826   1.895       .  S
O824        C827   1.277       .  A
Ni825      Ni826   2.390       .  S
C827       C1196   1.464       .  S
C828       C1206   1.478       .  S
C829       C1216   1.471       .  S
C830       C1186   1.485       .  S
O831       Ni839   1.925       .  S
O831        C841   1.284       .  A
O832       Ni839   1.928       .  S
O832        C842   1.284       .  A
O833       Ni839   1.903       .  S
O833        C843   1.278       .  A
O834       Ni839   1.904       .  S
O834        C844   1.277       .  A
O835       Ni840   1.945       .  S
O835        C844   1.288       .  A
O836       Ni840   1.938       .  S
O836        C843   1.284       .  A
O837       Ni840   1.910       .  S
O837        C842   1.279       .  A
O838       Ni840   1.898       .  S
O838        C841   1.277       .  A
Ni839      Ni840   2.388       .  S
C841       C1166   1.469       .  S
C842       C1159   1.482       .  S
C843       C1219   1.472       .  S
C844       C1176   1.489       .  S
O845       Ni853   1.920       .  S
O845        C855   1.283       .  A
O846       Ni853   1.926       .  S
O846        C856   1.284       .  A
O847       Ni853   1.901       .  S
O847        C857   1.277       .  A
O848       Ni853   1.902       .  S
O848        C858   1.277       .  A
O849       Ni854   1.944       .  S
O849        C858   1.288       .  A
O850       Ni854   1.940       .  S
O850        C857   1.285       .  A
O851       Ni854   1.901       .  S
O851        C856   1.278       .  A
O852       Ni854   1.893       .  S
O852        C855   1.277       .  A
Ni853      Ni854   2.388       .  S
C855       C1199   1.471       .  S
C856       C1209   1.476       .  S
C857       C1146   1.471       .  S
C858       C1136   1.489       .  S
O859       Ni867   1.927       .  S
O859        C869   1.284       .  A
O860       Ni867   1.930       .  S
O860        C870   1.285       .  A
O861       Ni867   1.903       .  S
O861        C871   1.277       .  A
O862       Ni867   1.906       .  S
O862        C872   1.278       .  A
O863       Ni868   1.939       .  S
O863        C872   1.287       .  A
O864       Ni868   1.936       .  S
O864        C871   1.284       .  A
O865       Ni868   1.907       .  S
O865        C870   1.279       .  A
O866       Ni868   1.898       .  S
O866        C869   1.278       .  A
Ni867      Ni868   2.387       .  S
C869       C1169   1.478       .  S
C870       C1156   1.484       .  S
C871       C1149   1.470       .  S
C872       C1129   1.485       .  S
O873       Ni881   1.919       .  S
O873        C883   1.283       .  A
O874       Ni881   1.927       .  S
O874        C884   1.284       .  A
O875       Ni881   1.903       .  S
O875        C885   1.278       .  A
O876       Ni881   1.905       .  S
O876        C886   1.278       .  A
O877       Ni882   1.943       .  S
O877        C886   1.288       .  A
O878       Ni882   1.939       .  S
O878        C885   1.284       .  A
O879       Ni882   1.907       .  S
O879        C884   1.279       .  A
O880       Ni882   1.898       .  S
O880        C883   1.277       .  A
Ni881      Ni882   2.388       .  S
C883       C1106   1.471       .  S
C884       C1096   1.482       .  S
C885       C1116   1.472       .  S
C886       C1179   1.488       .  S
O887       Ni895   1.923       .  S
O887        C897   1.283       .  A
O888       Ni895   1.925       .  S
O888        C898   1.284       .  A
O889       Ni895   1.903       .  S
O889        C899   1.278       .  A
O890       Ni895   1.905       .  S
O890        C900   1.278       .  A
O891       Ni896   1.943       .  S
O891        C900   1.288       .  A
O892       Ni896   1.939       .  S
O892        C899   1.284       .  A
O893       Ni896   1.911       .  S
O893        C898   1.280       .  A
O894       Ni896   1.901       .  S
O894        C897   1.278       .  A
Ni895      Ni896   2.386       .  S
C897       C1066   1.476       .  S
C898       C1076   1.484       .  S
C899       C1119   1.472       .  S
C900       C1086   1.492       .  S
O901       Ni909   1.921       .  S
O901        C911   1.283       .  A
O902       Ni909   1.927       .  S
O902        C912   1.284       .  A
O903       Ni909   1.904       .  S
O903        C913   1.278       .  A
O904       Ni909   1.905       .  S
O904        C914   1.278       .  A
O905       Ni910   1.939       .  S
O905        C914   1.287       .  A
O906       Ni910   1.935       .  S
O906        C913   1.283       .  A
O907       Ni910   1.905       .  S
O907        C912   1.278       .  A
O908       Ni910   1.897       .  S
O908        C911   1.277       .  A
Ni909      Ni910   2.389       .  S
C911       C1109   1.470       .  S
C912       C1099   1.479       .  S
C913       C1059   1.469       .  S
C914       C1126   1.487       .  S
O915       Ni923   1.920       .  S
O915        C925   1.282       .  A
O916       Ni923   1.921       .  S
O916        C926   1.283       .  A
O917       Ni923   1.904       .  S
O917        C927   1.278       .  A
O918       Ni923   1.904       .  S
O918        C928   1.278       .  A
O919       Ni924   1.940       .  S
O919        C928   1.287       .  A
O920       Ni924   1.933       .  S
O920        C927   1.283       .  A
O921       Ni924   1.915       .  S
O921        C926   1.280       .  A
O922       Ni924   1.903       .  S
O922        C925   1.279       .  A
Ni923      Ni924   2.388       .  S
C925       C1069   1.472       .  S
C926       C1079   1.481       .  S
C927       C1056   1.469       .  S
C928       C1049   1.491       .  S
O929       Ni937   1.919       .  S
O929        C939   1.283       .  A
O930       Ni937   1.928       .  S
O930        C940   1.284       .  A
O931       Ni937   1.902       .  S
O931        C941   1.278       .  A
O932       Ni937   1.906       .  S
O932        C942   1.278       .  A
O933       Ni938   1.939       .  S
O933        C942   1.287       .  A
O934       Ni938   1.936       .  S
O934        C941   1.283       .  A
O935       Ni938   1.906       .  S
O935        C940   1.279       .  A
O936       Ni938   1.896       .  S
O936        C939   1.277       .  A
Ni937      Ni938   2.388       .  S
C939       C1026   1.471       .  S
C940       C1019   1.482       .  S
C941       C1036   1.470       .  S
C942       C1139   1.486       .  S
O943       Ni951   1.924       .  S
O943        C953   1.284       .  A
O944       Ni951   1.930       .  S
O944        C954   1.285       .  A
O945       Ni951   1.902       .  S
O945        C955   1.278       .  A
O946       Ni951   1.903       .  S
O946        C956   1.277       .  A
O947       Ni952   1.939       .  S
O947        C956   1.286       .  A
O948       Ni952   1.934       .  S
O948        C955   1.283       .  A
O949       Ni952   1.914       .  S
O949        C954   1.280       .  A
O950       Ni952   1.904       .  S
O950        C953   1.278       .  A
Ni951      Ni952   2.388       .  S
C953        C996   1.474       .  S
C954       C1009   1.487       .  S
C955       C1039   1.470       .  S
C956       C1046   1.477       .  S
O957       Ni965   1.919       .  S
O957        C967   1.283       .  A
O958       Ni965   1.926       .  S
O958        C968   1.284       .  A
O959       Ni965   1.898       .  S
O959        C969   1.277       .  A
O960       Ni965   1.899       .  S
O960        C970   1.277       .  A
O961       Ni966   1.945       .  S
O961        C970   1.288       .  A
O962       Ni966   1.939       .  S
O962        C969   1.284       .  A
O963       Ni966   1.905       .  S
O963        C968   1.278       .  A
O964       Ni966   1.898       .  S
O964        C967   1.277       .  A
Ni965      Ni966   2.389       .  S
C967       C1029   1.467       .  S
C968       C1016   1.478       .  S
C969        C986   1.471       .  S
C970       C1189   1.487       .  S
O971       Ni979   1.926       .  S
O971        C981   1.284       .  A
O972       Ni979   1.931       .  S
O972        C982   1.285       .  A
O973       Ni979   1.902       .  S
O973        C983   1.278       .  A
O974       Ni979   1.906       .  S
O974        C984   1.277       .  A
O975       Ni980   1.941       .  S
O975        C984   1.287       .  A
O976       Ni980   1.937       .  S
O976        C983   1.284       .  A
O977       Ni980   1.912       .  S
O977        C982   1.280       .  A
O978       Ni980   1.904       .  S
O978        C981   1.278       .  A
Ni979      Ni980   2.387       .  S
C981        C999   1.479       .  S
C982       C1006   1.486       .  S
C983        C989   1.472       .  S
C984       C1089   1.483       .  S
C985        C986   1.403       .  A
C985        C990   1.393       .  A
C985        H992   1.084       .  S
C986        C987   1.405       .  A
C987        C988   1.407       .  A
C987        F994   1.357       .  S
C988        C989   1.407       .  A
C988        H993   1.083       .  S
C989        C990   1.403       .  A
C990        F991   1.358       .  S
C995       C1404   1.401       .  A
C995       C1000   1.397   1_565  A
C995       H1410   1.083       .  S
C996       C1403   1.401       .  A
C996       C1405   1.408       .  A
C997       C1404   1.408   1_545  A
C997        C998   1.397       .  A
C997       F1412   1.358       .  S
C998        C999   1.403       .  A
C998       H1003   1.083       .  S
C999       C1000   1.411       .  A
C1000      F1001   1.358       .  S
H1002      C1403   1.083       .  S
F1004      C1405   1.358       .  S
C1005      C1006   1.408   1_455  A
C1005      H1012   1.083       .  S
C1006      C1007   1.406       .  A
C1007      F1014   1.357       .  S
C1008      C1009   1.409       .  A
C1008      H1013   1.083       .  S
C1009      C1010   1.407       .  A
C1010      F1011   1.357       .  S
C1015      C1016   1.407       .  A
C1015      C1020   1.398   1_545  A
C1015      H1022   1.084       .  S
C1016      C1017   1.404       .  A
C1017      C1018   1.398       .  A
C1017      F1024   1.358       .  S
C1018      C1427   1.408   1_545  A
C1018      H1431   1.083       .  S
C1019      C1426   1.408       .  A
C1019      C1428   1.406       .  A
C1020      C1427   1.406       .  A
C1020      F1429   1.357       .  S
F1021      C1428   1.357       .  S
H1023      C1426   1.083       .  S
C1025      C1026   1.402       .  A
C1025      H1032   1.083       .  S
C1026      C1027   1.410       .  A
C1027      F1034   1.358       .  S
C1028      C1029   1.399       .  A
C1028      H1033   1.083       .  S
C1029      C1030   1.408   1_655  A
C1030      F1031   1.358       .  S
C1035      C1036   1.403       .  A
C1035      C1040   1.395       .  A
C1035      H1042   1.084       .  S
C1036      C1037   1.404       .  A
C1037      C1038   1.405       .  A
C1037      F1044   1.357       .  S
C1038      C1039   1.407       .  A
C1038      H1043   1.083       .  S
C1039      C1040   1.402       .  A
C1040      F1041   1.358       .  S
C1045      C1046   1.398       .  A
C1045      C1050   1.400       .  A
C1045      H1052   1.083       .  S
C1046      C1047   1.409       .  A
C1047      C1048   1.402       .  A
C1047      F1054   1.358       .  S
C1048      C1049   1.405       .  A
C1048      H1053   1.082       .  S
C1049      C1050   1.416       .  A
C1050      F1051   1.357       .  S
C1055      C1056   1.401       .  A
C1055      C1060   1.397       .  A
C1055      H1062   1.083       .  S
C1056      C1057   1.407       .  A
C1057      C1058   1.404       .  A
C1057      F1064   1.358       .  S
C1058      C1059   1.403       .  A
C1058      H1063   1.083       .  S
C1059      C1060   1.405       .  A
C1060      F1061   1.358       .  S
C1065      C1066   1.407       .  A
C1065      C1070   1.396   1_545  A
C1065      H1072   1.083       .  S
C1066      C1067   1.405       .  A
C1067      C1068   1.395       .  A
C1067      F1074   1.357       .  S
C1068      C1477   1.405   1_545  A
C1068      H1481   1.083       .  S
C1069      C1476   1.405       .  A
C1069      C1478   1.404       .  A
C1070      C1477   1.404       .  A
C1070      F1479   1.358       .  S
F1071      C1478   1.358       .  S
H1073      C1476   1.083       .  S
C1075      C1076   1.405       .  A
C1075      C1080   1.400       .  A
C1075      H1082   1.083       .  S
C1076      C1077   1.411       .  A
C1077      C1078   1.398       .  A
C1077      F1084   1.357       .  S
C1078      C1079   1.403       .  A
C1078      H1083   1.083       .  S
C1079      C1080   1.409       .  A
C1080      F1081   1.358       .  S
C1085      C1086   1.412       .  A
C1085      C1090   1.401       .  A
C1085      H1092   1.082       .  S
C1086      C1087   1.407       .  A
C1087      C1088   1.403       .  A
C1087      F1094   1.357       .  S
C1088      C1089   1.409       .  A
C1088      H1093   1.082       .  S
C1089      C1090   1.401       .  A
C1090      F1091   1.357       .  S
C1095      C1096   1.408       .  A
C1095      C1100   1.399   1_545  A
C1095      H1102   1.083       .  S
C1096      C1097   1.406       .  A
C1097      C1098   1.398       .  A
C1097      F1104   1.357       .  S
C1098      C1507   1.407   1_545  A
C1098      H1511   1.083       .  S
C1099      C1506   1.407       .  A
C1099      C1508   1.405       .  A
C1100      C1507   1.405       .  A
C1100      F1509   1.357       .  S
F1101      C1508   1.357       .  S
H1103      C1506   1.083       .  S
C1105      C1106   1.407       .  A
C1105      C1110   1.394       .  A
C1105      H1112   1.083       .  S
C1106      C1107   1.404       .  A
C1107      C1108   1.394       .  A
C1107      F1114   1.358       .  S
C1108      C1109   1.406       .  A
C1108      H1113   1.083       .  S
C1109      C1110   1.403       .  A
C1110      F1111   1.358       .  S
C1115      C1116   1.403       .  A
C1115      C1120   1.406       .  A
C1115      H1122   1.083       .  S
C1116      C1117   1.406       .  A
C1117      C1118   1.396       .  A
C1117      F1124   1.358       .  S
C1118      C1119   1.401       .  A
C1118      H1123   1.084       .  S
C1119      C1120   1.408       .  A
C1120      F1121   1.357       .  S
C1125      C1126   1.402       .  A
C1125      C1130   1.401       .  A
C1125      H1132   1.083       .  S
C1126      C1127   1.414       .  A
C1127      C1128   1.401       .  A
C1127      F1134   1.358       .  S
C1128      C1129   1.401       .  A
C1128      H1133   1.083       .  S
C1129      C1130   1.412       .  A
C1130      F1131   1.358       .  S
C1135      C1136   1.411       .  A
C1135      C1140   1.400       .  A
C1135      H1142   1.082       .  S
C1136      C1137   1.405       .  A
C1137      C1138   1.403       .  A
C1137      F1144   1.357       .  S
C1138      C1139   1.411       .  A
C1138      H1143   1.083       .  S
C1139      C1140   1.403       .  A
C1140      F1141   1.357       .  S
C1145      C1146   1.404       .  A
C1145      C1150   1.399   1_554  A
C1145      H1152   1.084       .  S
C1146      C1147   1.404       .  A
C1147      C1148   1.403   1_554  A
C1147      F1154   1.357       .  S
C1148      C1149   1.405       .  A
C1148      H1153   1.083       .  S
C1149      C1150   1.403       .  A
C1150      F1151   1.358       .  S
C1155      C1156   1.409       .  A
C1155      H1162   1.083       .  S
C1156      C1157   1.406       .  A
C1157      F1164   1.357       .  S
C1158      C1159   1.408   1_455  A
C1158      H1163   1.083       .  S
C1159      C1160   1.405       .  A
C1160      F1161   1.357       .  S
C1165      C1166   1.405       .  A
C1165      C1170   1.397       .  A
C1165      H1172   1.083       .  S
C1166      C1167   1.401       .  A
C1167      C1168   1.395       .  A
C1167      F1174   1.358       .  S
C1168      C1169   1.409       .  A
C1168      H1173   1.083       .  S
C1169      C1170   1.406       .  A
C1170      F1171   1.357       .  S
C1175      C1176   1.402       .  A
C1175      C1180   1.402       .  A
C1175      H1182   1.083       .  S
C1176      C1177   1.414       .  A
C1177      C1178   1.403       .  A
C1177      F1184   1.358       .  S
C1178      C1179   1.402       .  A
C1178      H1183   1.083       .  S
C1179      C1180   1.414       .  A
C1180      F1181   1.358       .  S
C1185      C1186   1.411       .  A
C1185      C1190   1.403       .  A
C1185      H1192   1.083       .  S
C1186      C1187   1.402       .  A
C1187      C1188   1.400       .  A
C1187      F1194   1.357       .  S
C1188      C1189   1.411       .  A
C1188      H1193   1.083       .  S
C1189      C1190   1.404       .  A
C1190      F1191   1.357       .  S
C1195      C1196   1.404   1_455  A
C1195      H1202   1.083       .  S
C1196      C1197   1.401       .  A
C1197      F1204   1.358       .  S
C1198      C1199   1.408       .  A
C1198      H1203   1.083       .  S
C1199      C1200   1.404       .  A
C1200      F1201   1.357       .  S
C1205      C1206   1.408       .  A
C1205      C1210   1.397       .  A
C1205      H1212   1.083       .  S
C1206      C1207   1.405       .  A
C1207      C1208   1.396       .  A
C1207      F1214   1.357       .  S
C1208      C1209   1.407       .  A
C1208      H1213   1.083       .  S
C1209      C1210   1.404       .  A
C1210      F1211   1.357       .  S
C1215      C1216   1.403       .  A
C1215      C1220   1.395   1_554  A
C1215      H1222   1.084       .  S
C1216      C1217   1.404       .  A
C1217      C1218   1.407   1_554  A
C1217      F1224   1.357       .  S
C1218      C1219   1.407       .  A
C1218      H1223   1.083       .  S
C1219      C1220   1.402       .  A
C1220      F1221   1.358       .  S
O1225     Ni1233   1.917       .  S
O1225      C1235   1.282       .  A
O1226     Ni1233   1.925       .  S
O1226      C1236   1.284       .  A
O1227     Ni1233   1.902       .  S
O1227      C1237   1.278       .  A
O1228     Ni1233   1.904       .  S
O1228      C1238   1.277       .  A
O1229     Ni1234   1.940       .  S
O1229      C1238   1.287       .  A
O1230     Ni1234   1.937       .  S
O1230      C1237   1.284       .  A
O1231     Ni1234   1.903       .  S
O1231      C1236   1.278       .  A
O1232     Ni1234   1.895       .  S
O1232      C1235   1.277       .  A
Ni1233    Ni1234   2.390       .  S
C1235      C1604   1.464       .  S
C1236      C1614   1.478       .  S
C1237      C1624   1.471       .  S
C1238      C1594   1.485       .  S
O1239     Ni1247   1.925       .  S
O1239      C1249   1.284       .  A
O1240     Ni1247   1.928       .  S
O1240      C1250   1.284       .  A
O1241     Ni1247   1.903       .  S
O1241      C1251   1.278       .  A
O1242     Ni1247   1.904       .  S
O1242      C1252   1.277       .  A
O1243     Ni1248   1.945       .  S
O1243      C1252   1.288       .  A
O1244     Ni1248   1.938       .  S
O1244      C1251   1.284       .  A
O1245     Ni1248   1.910       .  S
O1245      C1250   1.279       .  A
O1246     Ni1248   1.898       .  S
O1246      C1249   1.277       .  A
Ni1247    Ni1248   2.388       .  S
C1249      C1574   1.469       .  S
C1250      C1567   1.482       .  S
C1251      C1627   1.472       .  S
C1252      C1584   1.489       .  S
O1253     Ni1261   1.920       .  S
O1253      C1263   1.283       .  A
O1254     Ni1261   1.926       .  S
O1254      C1264   1.284       .  A
O1255     Ni1261   1.901       .  S
O1255      C1265   1.277       .  A
O1256     Ni1261   1.902       .  S
O1256      C1266   1.277       .  A
O1257     Ni1262   1.944       .  S
O1257      C1266   1.288       .  A
O1258     Ni1262   1.940       .  S
O1258      C1265   1.285       .  A
O1259     Ni1262   1.901       .  S
O1259      C1264   1.278       .  A
O1260     Ni1262   1.893       .  S
O1260      C1263   1.277       .  A
Ni1261    Ni1262   2.388       .  S
C1263      C1607   1.471       .  S
C1264      C1617   1.476       .  S
C1265      C1554   1.471       .  S
C1266      C1544   1.489       .  S
O1267     Ni1275   1.927       .  S
O1267      C1277   1.284       .  A
O1268     Ni1275   1.930       .  S
O1268      C1278   1.285       .  A
O1269     Ni1275   1.903       .  S
O1269      C1279   1.277       .  A
O1270     Ni1275   1.906       .  S
O1270      C1280   1.278       .  A
O1271     Ni1276   1.939       .  S
O1271      C1280   1.287       .  A
O1272     Ni1276   1.936       .  S
O1272      C1279   1.284       .  A
O1273     Ni1276   1.907       .  S
O1273      C1278   1.279       .  A
O1274     Ni1276   1.898       .  S
O1274      C1277   1.278       .  A
Ni1275    Ni1276   2.387       .  S
C1277      C1577   1.478       .  S
C1278      C1564   1.484       .  S
C1279      C1557   1.470       .  S
C1280      C1537   1.485       .  S
O1281     Ni1289   1.919       .  S
O1281      C1291   1.283       .  A
O1282     Ni1289   1.927       .  S
O1282      C1292   1.284       .  A
O1283     Ni1289   1.903       .  S
O1283      C1293   1.278       .  A
O1284     Ni1289   1.905       .  S
O1284      C1294   1.278       .  A
O1285     Ni1290   1.943       .  S
O1285      C1294   1.288       .  A
O1286     Ni1290   1.939       .  S
O1286      C1293   1.284       .  A
O1287     Ni1290   1.907       .  S
O1287      C1292   1.279       .  A
O1288     Ni1290   1.898       .  S
O1288      C1291   1.277       .  A
Ni1289    Ni1290   2.388       .  S
C1291      C1514   1.471       .  S
C1292      C1504   1.482       .  S
C1293      C1524   1.472       .  S
C1294      C1587   1.488       .  S
O1295     Ni1303   1.923       .  S
O1295      C1305   1.283       .  A
O1296     Ni1303   1.925       .  S
O1296      C1306   1.284       .  A
O1297     Ni1303   1.903       .  S
O1297      C1307   1.278       .  A
O1298     Ni1303   1.905       .  S
O1298      C1308   1.278       .  A
O1299     Ni1304   1.943       .  S
O1299      C1308   1.288       .  A
O1300     Ni1304   1.939       .  S
O1300      C1307   1.284       .  A
O1301     Ni1304   1.911       .  S
O1301      C1306   1.280       .  A
O1302     Ni1304   1.901       .  S
O1302      C1305   1.278       .  A
Ni1303    Ni1304   2.386       .  S
C1305      C1474   1.476       .  S
C1306      C1484   1.484       .  S
C1307      C1527   1.472       .  S
C1308      C1494   1.492       .  S
O1309     Ni1317   1.921       .  S
O1309      C1319   1.283       .  A
O1310     Ni1317   1.927       .  S
O1310      C1320   1.284       .  A
O1311     Ni1317   1.904       .  S
O1311      C1321   1.278       .  A
O1312     Ni1317   1.905       .  S
O1312      C1322   1.278       .  A
O1313     Ni1318   1.939       .  S
O1313      C1322   1.287       .  A
O1314     Ni1318   1.935       .  S
O1314      C1321   1.283       .  A
O1315     Ni1318   1.905       .  S
O1315      C1320   1.278       .  A
O1316     Ni1318   1.897       .  S
O1316      C1319   1.277       .  A
Ni1317    Ni1318   2.389       .  S
C1319      C1517   1.470       .  S
C1320      C1507   1.479       .  S
C1321      C1467   1.469       .  S
C1322      C1534   1.487       .  S
O1323     Ni1331   1.920       .  S
O1323      C1333   1.282       .  A
O1324     Ni1331   1.921       .  S
O1324      C1334   1.283       .  A
O1325     Ni1331   1.904       .  S
O1325      C1335   1.278       .  A
O1326     Ni1331   1.904       .  S
O1326      C1336   1.278       .  A
O1327     Ni1332   1.940       .  S
O1327      C1336   1.287       .  A
O1328     Ni1332   1.933       .  S
O1328      C1335   1.283       .  A
O1329     Ni1332   1.915       .  S
O1329      C1334   1.280       .  A
O1330     Ni1332   1.903       .  S
O1330      C1333   1.279       .  A
Ni1331    Ni1332   2.388       .  S
C1333      C1477   1.472       .  S
C1334      C1487   1.481       .  S
C1335      C1464   1.469       .  S
C1336      C1457   1.491       .  S
O1337     Ni1345   1.919       .  S
O1337      C1347   1.283       .  A
O1338     Ni1345   1.928       .  S
O1338      C1348   1.284       .  A
O1339     Ni1345   1.902       .  S
O1339      C1349   1.278       .  A
O1340     Ni1345   1.906       .  S
O1340      C1350   1.278       .  A
O1341     Ni1346   1.939       .  S
O1341      C1350   1.287       .  A
O1342     Ni1346   1.936       .  S
O1342      C1349   1.283       .  A
O1343     Ni1346   1.906       .  S
O1343      C1348   1.279       .  A
O1344     Ni1346   1.896       .  S
O1344      C1347   1.277       .  A
Ni1345    Ni1346   2.388       .  S
C1347      C1434   1.471       .  S
C1348      C1427   1.482       .  S
C1349      C1444   1.470       .  S
C1350      C1547   1.486       .  S
O1351     Ni1359   1.924       .  S
O1351      C1361   1.284       .  A
O1352     Ni1359   1.930       .  S
O1352      C1362   1.285       .  A
O1353     Ni1359   1.902       .  S
O1353      C1363   1.278       .  A
O1354     Ni1359   1.903       .  S
O1354      C1364   1.277       .  A
O1355     Ni1360   1.939       .  S
O1355      C1364   1.286       .  A
O1356     Ni1360   1.934       .  S
O1356      C1363   1.283       .  A
O1357     Ni1360   1.914       .  S
O1357      C1362   1.280       .  A
O1358     Ni1360   1.904       .  S
O1358      C1361   1.278       .  A
Ni1359    Ni1360   2.388       .  S
C1361      C1404   1.474       .  S
C1362      C1417   1.487       .  S
C1363      C1447   1.470       .  S
C1364      C1454   1.477       .  S
O1365     Ni1373   1.919       .  S
O1365      C1375   1.283       .  A
O1366     Ni1373   1.926       .  S
O1366      C1376   1.284       .  A
O1367     Ni1373   1.898       .  S
O1367      C1377   1.277       .  A
O1368     Ni1373   1.899       .  S
O1368      C1378   1.277       .  A
O1369     Ni1374   1.945       .  S
O1369      C1378   1.288       .  A
O1370     Ni1374   1.939       .  S
O1370      C1377   1.284       .  A
O1371     Ni1374   1.905       .  S
O1371      C1376   1.278       .  A
O1372     Ni1374   1.898       .  S
O1372      C1375   1.277       .  A
Ni1373    Ni1374   2.389       .  S
C1375      C1437   1.467       .  S
C1376      C1424   1.478       .  S
C1377      C1394   1.471       .  S
C1378      C1597   1.487       .  S
O1379     Ni1387   1.926       .  S
O1379      C1389   1.284       .  A
O1380     Ni1387   1.931       .  S
O1380      C1390   1.285       .  A
O1381     Ni1387   1.902       .  S
O1381      C1391   1.278       .  A
O1382     Ni1387   1.906       .  S
O1382      C1392   1.277       .  A
O1383     Ni1388   1.941       .  S
O1383      C1392   1.287       .  A
O1384     Ni1388   1.937       .  S
O1384      C1391   1.284       .  A
O1385     Ni1388   1.912       .  S
O1385      C1390   1.280       .  A
O1386     Ni1388   1.904       .  S
O1386      C1389   1.278       .  A
Ni1387    Ni1388   2.387       .  S
C1389      C1407   1.479       .  S
C1390      C1414   1.486       .  S
C1391      C1397   1.472       .  S
C1392      C1497   1.483       .  S
C1393      C1394   1.403       .  A
C1393      C1398   1.393       .  A
C1393      H1400   1.084       .  S
C1394      C1395   1.405       .  A
C1395      C1396   1.407       .  A
C1395      F1402   1.357       .  S
C1396      C1397   1.407       .  A
C1396      H1401   1.083       .  S
C1397      C1398   1.403       .  A
C1398      F1399   1.358       .  S
C1403      C1408   1.397       .  A
C1405      C1406   1.397       .  A
C1406      C1407   1.403       .  A
C1406      H1411   1.083       .  S
C1407      C1408   1.411       .  A
C1408      F1409   1.358       .  S
C1413      C1414   1.408   1_455  A
C1413      H1420   1.083       .  S
C1414      C1415   1.406       .  A
C1415      F1422   1.357       .  S
C1416      C1417   1.409       .  A
C1416      H1421   1.083       .  S
C1417      C1418   1.407       .  A
C1418      F1419   1.357       .  S
C1423      C1424   1.407       .  A
C1423      C1428   1.398       .  A
C1423      H1430   1.084       .  S
C1424      C1425   1.404       .  A
C1425      C1426   1.398       .  A
C1425      F1432   1.358       .  S
C1433      C1434   1.402       .  A
C1433      H1440   1.083       .  S
C1434      C1435   1.410       .  A
C1435      F1442   1.358       .  S
C1436      C1437   1.399       .  A
C1436      H1441   1.083       .  S
C1437      C1438   1.408   1_655  A
C1438      F1439   1.358       .  S
C1443      C1444   1.403       .  A
C1443      C1448   1.395       .  A
C1443      H1450   1.084       .  S
C1444      C1445   1.404       .  A
C1445      C1446   1.405       .  A
C1445      F1452   1.357       .  S
C1446      C1447   1.407       .  A
C1446      H1451   1.083       .  S
C1447      C1448   1.402       .  A
C1448      F1449   1.358       .  S
C1453      C1454   1.398       .  A
C1453      C1458   1.400       .  A
C1453      H1460   1.083       .  S
C1454      C1455   1.409       .  A
C1455      C1456   1.402       .  A
C1455      F1462   1.358       .  S
C1456      C1457   1.405       .  A
C1456      H1461   1.082       .  S
C1457      C1458   1.416       .  A
C1458      F1459   1.357       .  S
C1463      C1464   1.401       .  A
C1463      C1468   1.397       .  A
C1463      H1470   1.083       .  S
C1464      C1465   1.407       .  A
C1465      C1466   1.404       .  A
C1465      F1472   1.358       .  S
C1466      C1467   1.403       .  A
C1466      H1471   1.083       .  S
C1467      C1468   1.405       .  A
C1468      F1469   1.358       .  S
C1473      C1474   1.407       .  A
C1473      C1478   1.396       .  A
C1473      H1480   1.083       .  S
C1474      C1475   1.405       .  A
C1475      C1476   1.395       .  A
C1475      F1482   1.357       .  S
C1483      C1484   1.405       .  A
C1483      C1488   1.400       .  A
C1483      H1490   1.083       .  S
C1484      C1485   1.411       .  A
C1485      C1486   1.398       .  A
C1485      F1492   1.357       .  S
C1486      C1487   1.403       .  A
C1486      H1491   1.083       .  S
C1487      C1488   1.409       .  A
C1488      F1489   1.358       .  S
C1493      C1494   1.412       .  A
C1493      C1498   1.401       .  A
C1493      H1500   1.082       .  S
C1494      C1495   1.407       .  A
C1495      C1496   1.403       .  A
C1495      F1502   1.357       .  S
C1496      C1497   1.409       .  A
C1496      H1501   1.082       .  S
C1497      C1498   1.401       .  A
C1498      F1499   1.357       .  S
C1503      C1504   1.408       .  A
C1503      C1508   1.399       .  A
C1503      H1510   1.083       .  S
C1504      C1505   1.406       .  A
C1505      C1506   1.398       .  A
C1505      F1512   1.357       .  S
C1513      C1514   1.407       .  A
C1513      C1518   1.394       .  A
C1513      H1520   1.083       .  S
C1514      C1515   1.404       .  A
C1515      C1516   1.394       .  A
C1515      F1522   1.358       .  S
C1516      C1517   1.406       .  A
C1516      H1521   1.083       .  S
C1517      C1518   1.403       .  A
C1518      F1519   1.358       .  S
C1523      C1524   1.403       .  A
C1523      C1528   1.406       .  A
C1523      H1530   1.083       .  S
C1524      C1525   1.406       .  A
C1525      C1526   1.396       .  A
C1525      F1532   1.358       .  S
C1526      C1527   1.401       .  A
C1526      H1531   1.084       .  S
C1527      C1528   1.408       .  A
C1528      F1529   1.357       .  S
C1533      C1534   1.402       .  A
C1533      C1538   1.401       .  A
C1533      H1540   1.083       .  S
C1534      C1535   1.414       .  A
C1535      C1536   1.401       .  A
C1535      F1542   1.358       .  S
C1536      C1537   1.401       .  A
C1536      H1541   1.083       .  S
C1537      C1538   1.412       .  A
C1538      F1539   1.358       .  S
C1543      C1544   1.411       .  A
C1543      C1548   1.400       .  A
C1543      H1550   1.082       .  S
C1544      C1545   1.405       .  A
C1545      C1546   1.403       .  A
C1545      F1552   1.357       .  S
C1546      C1547   1.411       .  A
C1546      H1551   1.083       .  S
C1547      C1548   1.403       .  A
C1548      F1549   1.357       .  S
C1553      C1554   1.404       .  A
C1553      C1558   1.399   1_554  A
C1553      H1560   1.084       .  S
C1554      C1555   1.404       .  A
C1555      C1556   1.403   1_554  A
C1555      F1562   1.357       .  S
C1556      C1557   1.405       .  A
C1556      H1561   1.083       .  S
C1557      C1558   1.403       .  A
C1558      F1559   1.358       .  S
C1563      C1564   1.409       .  A
C1563      H1570   1.083       .  S
C1564      C1565   1.406       .  A
C1565      F1572   1.357       .  S
C1566      C1567   1.408   1_455  A
C1566      H1571   1.083       .  S
C1567      C1568   1.405       .  A
C1568      F1569   1.357       .  S
C1573      C1574   1.405       .  A
C1573      C1578   1.397       .  A
C1573      H1580   1.083       .  S
C1574      C1575   1.401       .  A
C1575      C1576   1.395       .  A
C1575      F1582   1.358       .  S
C1576      C1577   1.409       .  A
C1576      H1581   1.083       .  S
C1577      C1578   1.406       .  A
C1578      F1579   1.357       .  S
C1583      C1584   1.402       .  A
C1583      C1588   1.402       .  A
C1583      H1590   1.083       .  S
C1584      C1585   1.414       .  A
C1585      C1586   1.403       .  A
C1585      F1592   1.358       .  S
C1586      C1587   1.402       .  A
C1586      H1591   1.083       .  S
C1587      C1588   1.414       .  A
C1588      F1589   1.358       .  S
C1593      C1594   1.411       .  A
C1593      C1598   1.403       .  A
C1593      H1600   1.083       .  S
C1594      C1595   1.402       .  A
C1595      C1596   1.400       .  A
C1595      F1602   1.357       .  S
C1596      C1597   1.411       .  A
C1596      H1601   1.083       .  S
C1597      C1598   1.404       .  A
C1598      F1599   1.357       .  S
C1603      C1604   1.404   1_455  A
C1603      H1610   1.083       .  S
C1604      C1605   1.401       .  A
C1605      F1612   1.358       .  S
C1606      C1607   1.408       .  A
C1606      H1611   1.083       .  S
C1607      C1608   1.404       .  A
C1608      F1609   1.357       .  S
C1613      C1614   1.408       .  A
C1613      C1618   1.397       .  A
C1613      H1620   1.083       .  S
C1614      C1615   1.405       .  A
C1615      C1616   1.396       .  A
C1615      F1622   1.357       .  S
C1616      C1617   1.407       .  A
C1616      H1621   1.083       .  S
C1617      C1618   1.404       .  A
C1618      F1619   1.357       .  S
C1623      C1624   1.403       .  A
C1623      C1628   1.395   1_554  A
C1623      H1630   1.084       .  S
C1624      C1625   1.404       .  A
C1625      C1626   1.407   1_554  A
C1625      F1632   1.357       .  S
C1626      C1627   1.407       .  A
C1626      H1631   1.083       .  S
C1627      C1628   1.402       .  A
C1628      F1629   1.358       .  S
