geometry optimzed in LAMMPS
_audit_creation_date              2020-12-01 
_audit_creation_method            'lammps2cif' 
_symmetry_space_group_name_H-M    'P1' 
_symmetry_Int_Tables_number       1 
_symmetry_cell_setting            triclinic 
loop_ 
_symmetry_equiv_pos_as_xyz 
  x,y,z 
_cell_length_a                    43.68137442 
_cell_length_b                    44.897193568119555 
_cell_length_c                    44.409933602749014 
_cell_angle_alpha                 89.60527138081119 
_cell_angle_beta                  89.99553325769564 
_cell_angle_gamma                 90.5228162467565 
loop_ 
_atom_site_label 
_atom_site_type_symbol 
_atom_site_fract_x 
_atom_site_fract_y 
_atom_site_fract_z 
_atom_site_charge 
C1          C  0.79451396  0.82157048  0.02944738     0.79700
N2          N  0.78801827  0.80597228  0.00406879    -0.78600
C3          C  0.80184361  0.81341688  0.97751427     0.82100
N4          N  0.82246479  0.83636807  0.97684673    -0.78600
C5          C  0.82931108  0.85163793  0.00225592     0.82200
N6          N  0.81489819  0.84438660  0.02820895    -0.80300
C7          C  0.76148622  0.21406811  0.03331840     0.79700
N8          N  0.74960231  0.22490596  0.00706412    -0.78600
C9          C  0.76100821  0.21577832  0.98009431     0.82100
N10         N  0.78479712  0.19639743  0.97955767    -0.78600
C11         C  0.79741655  0.18608473  0.00552300     0.82200
N12         N  0.78545607  0.19499321  0.03215993    -0.80300
C13         C  0.20047527  0.85080130  0.02728670     0.79700
N14         N  0.21270331  0.84102028  0.00100292    -0.78600
C15         C  0.20144450  0.85084495  0.97419523     0.82100
N16         N  0.17740744  0.86985439  0.97395058    -0.78600
C17         C  0.16510493  0.87968630  0.00002489     0.82200
N18         N  0.17695729  0.87033363  0.02656159    -0.80300
C19         C  0.78422218  0.05714323  0.80155878     0.79700
N20         N  0.80401458  0.05425110  0.82488158    -0.78600
C21         C  0.81442712  0.02728348  0.83371959     0.82100
N22         N  0.80462363  0.00260391  0.81890663    -0.78600
C23         C  0.78479445  0.00493045  0.79539717     0.82200
N24         N  0.77432287  0.03225716  0.78688299    -0.80300
C25         C  0.95489081  0.21349358  0.78678398     0.79700
N26         N  0.98169124  0.21971857  0.77234948    -0.78600
C27         C  0.00871360  0.21091676  0.78463128     0.82100
N28         N  0.00875518  0.19670067  0.81180593    -0.78600
C29         C  0.98216244  0.19107596  0.82684793     0.82200
N30         N  0.95541777  0.19937125  0.81393529    -0.80300
C31         C  0.95523158  0.85034112  0.79059300     0.79700
N32         N  0.95701229  0.86987375  0.81363605    -0.78600
C33         C  0.98423020  0.88156998  0.82229460     0.82100
N34         N  0.01008578  0.87352925  0.80755615    -0.78600
C35         C  0.00876324  0.85410300  0.78405989     0.82200
N36         N  0.98111138  0.84252705  0.77567708    -0.80300
C37         C  0.17254723  0.05148965  0.79149485     0.79700
N38         N  0.15085684  0.05284260  0.81322289    -0.78600
C39         C  0.14211960  0.02803749  0.82837146     0.82100
N40         N  0.15558680  0.00184144  0.82242739    -0.78600
C41         C  0.17770069  0.00018279  0.80121372     0.82200
N42         N  0.18623554  0.02506746  0.78557954    -0.80300
C43         C  0.95793694  0.80817067  0.17607150     0.79700
N44         N  0.95897304  0.83455996  0.16090413    -0.78600
C45         C  0.98594937  0.84702623  0.15227067     0.82100
N46         N  0.01229179  0.83234267  0.15841163    -0.78600
C47         C  0.01186176  0.80572939  0.17320627     0.82200
N48         N  0.98456412  0.79383937  0.18239534    -0.80300
C49         C  0.78075577  0.05634617  0.20198155     0.79700
N50         N  0.80355196  0.05134975  0.18206321    -0.78600
C51         C  0.80989689  0.02378331  0.17188143     0.82100
N52         N  0.79289866  0.00033469  0.18183252    -0.78600
C53         C  0.76991938  0.00445007  0.20204232     0.82200
N54         N  0.76384612  0.03250183  0.21212852    -0.80300
C55         C  0.95510355  0.20834236  0.22959008     0.79700
N56         N  0.98279415  0.21640207  0.24114184    -0.78600
C57         C  0.00899369  0.20749685  0.22746477     0.82100
N58         N  0.00718118  0.19109852  0.20192480    -0.78600
C59         C  0.97980754  0.18279074  0.19003559     0.82200
N60         N  0.95391095  0.19150022  0.20423791    -0.80300
Zr61       Zr  0.27001619  0.31461770  0.28674715     2.17500
O62         O  0.30912363  0.31499062  0.32605405    -0.51900
O63         O  0.26480738  0.36828552  0.28692437    -0.75100
O64         O  0.32026127  0.32807744  0.26833432    -0.81900
O65         O  0.20757565  0.29729120  0.34554615    -0.83600
O66         O  0.32754845  0.30974121  0.22137209    -0.79200
O67         O  0.25487412  0.31811736  0.33891304    -0.90900
O68         O  0.22934775  0.38214547  0.25262746    -0.76800
O69         O  0.26327898  0.32701155  0.23501770    -0.86300
O70         O  0.21694849  0.32479847  0.28186532    -0.86000
O71         O  0.28784780  0.27193778  0.25989802    -0.72800
O72         O  0.24407933  0.26999232  0.30240234    -0.84900
Zr73       Zr  0.20034019  0.24894841  0.21734448     2.26400
Zr74       Zr  0.27963808  0.28403022  0.20770742     2.06300
Zr75       Zr  0.19063749  0.27986824  0.29615538     2.10000
Zr76       Zr  0.20995291  0.33636180  0.23006269     1.78800
O77         O  0.17538059  0.24291327  0.33373351    -0.93700
O78         O  0.22398442  0.36814688  0.18747536    -0.41500
O79         O  0.18302151  0.29171095  0.24412695    -0.78200
O80         O  0.22610320  0.29402118  0.20158696    -0.96800
O81         O  0.25347474  0.23915433  0.22259893    -0.90200
O82         O  0.20699497  0.23689494  0.26907088    -0.93000
C83         C  0.24901345  0.38816268  0.27320412     1.00800
C84         C  0.23181313  0.31060392  0.35521741     1.13700
C85         C  0.33653937  0.32419550  0.24476825     1.04500
O86         O  0.29159271  0.31798540  0.16627137    -0.95100
O87         O  0.26455212  0.26092704  0.15980442    -0.90900
O88         O  0.21845250  0.23814463  0.16736634    -0.84000
C89         C  0.24153655  0.24509992  0.15091919     1.11100
O90         O  0.29898107  0.22180877  0.31351063    -0.97100
Zr91       Zr  0.26037129  0.22765399  0.27444589     1.88900
O92         O  0.20416329  0.19490027  0.21939581    -0.73800
O93         O  0.32146971  0.25073959  0.19524924    -0.53000
O94         O  0.30587147  0.20317275  0.25535142    -0.97700
O95         O  0.24411759  0.19822092  0.31804046    -0.54900
O96         O  0.24114271  0.18178522  0.25268968    -0.74300
C97         C  0.22026955  0.17544744  0.23345213     0.98100
O98         O  0.16135932  0.25320262  0.17799822    -0.63100
O99         O  0.15095524  0.31465482  0.31104857    -0.57900
O100        O  0.14887675  0.23757108  0.23486702    -0.94600
O101        O  0.14081489  0.26083376  0.27947280    -0.93000
O102        O  0.16375226  0.35810748  0.25093573    -0.93400
O103        O  0.17103735  0.34145798  0.19115380    -0.92200
C104        C  0.13166971  0.24543081  0.25682396     1.16900
H105        H  0.21083801  0.34103813  0.29462119     0.32800
H106        H  0.22173339  0.29795365  0.18061062     0.43700
H107        H  0.19483171  0.21966384  0.27471076     0.37200
H108        H  0.30936986  0.26896270  0.26376927     0.33700
H109        H  0.21688349  0.38826645  0.19298200     0.25500
H110        H  0.33486960  0.26254709  0.18160214     0.31400
H111        H  0.30005294  0.19608681  0.23505835     0.37300
H112        H  0.16760510  0.37986647  0.25064237     0.31800
H113        H  0.13955716  0.30421961  0.32731667     0.30700
H114        H  0.15568709  0.25021944  0.34172810     0.32400
H115        H  0.24901808  0.17737953  0.31289366     0.31300
H116        H  0.15423949  0.32788467  0.19758883     0.35300
H117        H  0.14465829  0.26509022  0.18681492     0.28100
H118        H  0.31791143  0.33541093  0.32594255     0.32300
H119        H  0.29795036  0.24043655  0.32526355     0.35100
H120        H  0.16186598  0.33110457  0.32133477     0.27700
H121        H  0.17024637  0.26677512  0.16258251     0.40600
H122        H  0.30677158  0.30725650  0.15393833     0.30700
H123        H  0.24660068  0.36955038  0.18823578     0.38300
H124        H  0.22148078  0.19888277  0.31791467     0.30100
H125        H  0.33343976  0.24878119  0.21407796     0.30200
H126        H  0.32577838  0.30204102  0.31881014     0.30500
C127        C  0.19610600  0.05436462  0.19747536     0.79700
N128        N  0.17402388  0.05385121  0.17602438    -0.78600
C129        C  0.16335276  0.02791366  0.16471651     0.82100
N130        N  0.17448901  0.00188667  0.17560137    -0.78600
C131        C  0.19680061  0.00191234  0.19701757     0.82200
N132        N  0.20766464  0.02823764  0.20802335    -0.80300
Zr133      Zr  0.26838077  0.74301092  0.28326768     2.17500
O134        O  0.30780323  0.70564060  0.27566538    -0.51900
O135        O  0.26507815  0.73982296  0.33778743    -0.75100
O136        O  0.31860310  0.76205561  0.29635101    -0.81900
O137        O  0.20604807  0.68466717  0.26601727    -0.83600
O138        O  0.32496037  0.80892177  0.27718581    -0.79200
O139        O  0.25204917  0.69177167  0.28924070    -0.90900
O140        O  0.22721054  0.77027690  0.35341891    -0.76800
O141        O  0.25956840  0.79268596  0.29905195    -0.86300
O142        O  0.21500472  0.74495700  0.29334140    -0.86000
O143        O  0.28525968  0.77396016  0.24214803    -0.72800
O144        O  0.24363106  0.72966700  0.23712566    -0.84900
Zr145      Zr  0.19699126  0.81350581  0.22158331     2.26400
Zr146      Zr  0.27492767  0.82407215  0.25763578     2.06300
Zr147      Zr  0.18992823  0.73305276  0.24700040     2.10000
Zr148      Zr  0.20606747  0.79445951  0.30891835     1.78800
O149        O  0.18140073  0.69718085  0.20695054    -0.93700
O150        O  0.22146610  0.83546350  0.34144723    -0.41500
O151        O  0.17981465  0.78291891  0.26283402    -0.78200
O152        O  0.22116781  0.82649797  0.26829895    -0.96800
O153        O  0.25027129  0.81162791  0.21122095    -0.90200
O154        O  0.20590662  0.76392038  0.20566257    -0.93000
C155        C  0.24862597  0.75151372  0.35844982     1.00800
C156        C  0.22929502  0.67548373  0.28102905     1.13700
C157        C  0.33473598  0.78549565  0.29085970     1.04500
O158        O  0.28690199  0.85794336  0.29860177    -0.95100
O159        O  0.25640348  0.87336134  0.24141660    -0.90900
O160        O  0.20909896  0.86584783  0.22132353    -0.84000
C161        C  0.23130321  0.88277098  0.22953562     1.11100
O162        O  0.29939451  0.72463395  0.19001900    -0.97100
Zr163      Zr  0.25952567  0.76160615  0.19656202     1.88900
O164        O  0.20584220  0.82017160  0.16799099    -0.73800
O165        O  0.31355591  0.84594777  0.22441454    -0.53000
O166        O  0.30568822  0.78362072  0.17473726    -0.97700
O167        O  0.24546677  0.72264215  0.16101841    -0.54900
O168        O  0.24244031  0.78824553  0.15247600    -0.74300
C169        C  0.22322090  0.80909053  0.14775031     0.98100
O170        O  0.15572612  0.84982144  0.22353950    -0.63100
O171        O  0.14965308  0.71300394  0.27945275    -0.57900
O172        O  0.14771816  0.79400365  0.20616728    -0.94600
O173        O  0.14068959  0.74745265  0.22553203    -0.93000
O174        O  0.16098448  0.77207804  0.33254083    -0.93400
O175        O  0.16523628  0.82989524  0.31783059    -0.92200
C176        C  0.13140610  0.77067323  0.21126097     1.16900
H177        H  0.20904880  0.73099118  0.30897182     0.32800
H178        H  0.21567552  0.84634986  0.27436191     0.43700
H179        H  0.19442643  0.75930583  0.18767344     0.37200
H180        H  0.30684748  0.77125033  0.23853114     0.33700
H181        H  0.21034711  0.83184826  0.36057933     0.25500
H182        H  0.32830169  0.85593279  0.23804143     0.31400
H183        H  0.29991698  0.80421143  0.16915897     0.37300
H184        H  0.16790132  0.76499069  0.35254457     0.31800
H185        H  0.13723821  0.73046190  0.28503094     0.30700
H186        H  0.16684335  0.68243214  0.21563583     0.32400
H187        H  0.25954977  0.72561374  0.14375373     0.31300
H188        H  0.15893862  0.83653902  0.29746642     0.35300
H189        H  0.14663561  0.85042062  0.20311195     0.28100
H190        H  0.31747448  0.70274631  0.29562352     0.32300
H191        H  0.29546314  0.70964450  0.20604708     0.35100
H192        H  0.13629297  0.70121207  0.26592581     0.27700
H193        H  0.13969106  0.84093017  0.23666314     0.40600
H194        H  0.30078387  0.87305531  0.28949044     0.30700
H195        H  0.24316180  0.83155285  0.34642414     0.38300
H196        H  0.22517751  0.72841185  0.15308980     0.30100
H197        H  0.32487148  0.82873469  0.21637307     0.30200
H198        H  0.32373785  0.71549064  0.26312311     0.30500
Zr199      Zr  0.76855880  0.25291753  0.22074188     2.17500
O200        O  0.80656330  0.25538097  0.18054802    -0.51900
O201        O  0.76556558  0.19901656  0.22215646    -0.75100
O202        O  0.81901659  0.24070937  0.23920557    -0.81900
O203        O  0.70664802  0.26825337  0.16195318    -0.83600
O204        O  0.82537300  0.25762715  0.28699867    -0.79200
O205        O  0.75151293  0.24407895  0.16980856    -0.90900
O206        O  0.72923705  0.18469968  0.25555180    -0.76800
O207        O  0.76032677  0.23919413  0.27189426    -0.86300
O208        O  0.71510039  0.24334066  0.22448529    -0.86000
O209        O  0.78683185  0.29467739  0.24926242    -0.72800
O210        O  0.74487245  0.29862425  0.20552431    -0.84900
Zr211      Zr  0.69983060  0.31744896  0.29122135     2.26400
Zr212      Zr  0.77720515  0.28115849  0.30083302     2.06300
Zr213      Zr  0.69107902  0.28909829  0.21064210     2.10000
Zr214      Zr  0.70676165  0.23016103  0.27564242     1.78800
O215        O  0.67906312  0.32734153  0.17339979    -0.93700
O216        O  0.71833932  0.19991028  0.31986607    -0.41500
O217        O  0.68166302  0.27576324  0.26232532    -0.78200
O218        O  0.72333153  0.27134586  0.30581925    -0.96800
O219        O  0.75320527  0.32704956  0.28715324    -0.90200
O220        O  0.70800771  0.33088897  0.23988124    -0.93000
C221        C  0.75017198  0.17879462  0.23622272     1.00800
C222        C  0.72918392  0.25224164  0.15301322     1.13700
C223        C  0.83482116  0.24436913  0.26322705     1.04500
O224        O  0.79055866  0.24463093  0.33929474    -0.95100
O225        O  0.76150476  0.30006213  0.35004448    -0.90900
O226        O  0.71513190  0.32204287  0.34360479    -0.84000
C227        C  0.73800679  0.31411102  0.35983839     1.11100
O228        O  0.80127287  0.34456653  0.19727328    -0.97100
Zr229      Zr  0.76157002  0.33991121  0.23568407     1.88900
O230        O  0.70631073  0.37130670  0.29129153    -0.73800
O231        O  0.81780641  0.31576240  0.31523360    -0.53000
O232        O  0.80741905  0.36340867  0.25631536    -0.97700
O233        O  0.74509962  0.37185642  0.19424130    -0.54900
O234        O  0.74412851  0.38541489  0.25921202    -0.74300
C235        C  0.72324611  0.39123928  0.27850909     0.98100
O236        O  0.66065372  0.31892671  0.33041619    -0.63100
O237        O  0.64811312  0.25806014  0.19461058    -0.57900
O238        O  0.64930090  0.32939361  0.27246718    -0.94600
O239        O  0.64238631  0.31044100  0.22559239    -0.93000
O240        O  0.66335049  0.20524113  0.25196398    -0.93400
O241        O  0.66446200  0.22476840  0.31109320    -0.92200
C242        C  0.63300565  0.32416523  0.24906504     1.16900
H243        H  0.70875053  0.22734567  0.21137786     0.32800
H244        H  0.71830720  0.26648061  0.32646338     0.43700
H245        H  0.69656344  0.34845813  0.23451511     0.37200
H246        H  0.80849156  0.29768622  0.24592506     0.33700
H247        H  0.70708259  0.18094802  0.31668687     0.25500
H248        H  0.83160374  0.30387280  0.32818102     0.31400
H249        H  0.80748664  0.38393860  0.24803438     0.37300
H250        H  0.66206450  0.18553543  0.26205209     0.31800
H251        H  0.63840815  0.26954726  0.17811635     0.30700
H252        H  0.69566336  0.32635387  0.15829226     0.32400
H253        H  0.72732274  0.38296046  0.20200110     0.31300
H254        H  0.64959636  0.24015307  0.30487895     0.35300
H255        H  0.65105816  0.33877940  0.32870575     0.28100
H256        H  0.81730052  0.23605053  0.18123333     0.32300
H257        H  0.80444121  0.36622443  0.19406973     0.35100
H258        H  0.65737592  0.24074795  0.18451698     0.27700
H259        H  0.64456382  0.30453207  0.32424832     0.40600
H260        H  0.77101418  0.23436361  0.34416199     0.30700
H261        H  0.74015286  0.19460908  0.31752304     0.38300
H262        H  0.73625332  0.35795976  0.17932214     0.30100
H263        H  0.82966031  0.31931774  0.29652826     0.30200
H264        H  0.82193391  0.27026366  0.18724756     0.30500
Zr265      Zr  0.69952243  0.74703495  0.28937395     2.17500
O266        O  0.65864866  0.70984149  0.29451821    -0.51900
O267        O  0.69849130  0.75118955  0.34384678    -0.75100
O268        O  0.71801328  0.69634388  0.29438456    -0.81900
O269        O  0.63832384  0.80697276  0.27725292    -0.83600
O270        O  0.76461604  0.69212536  0.27198473    -0.79200
O271        O  0.64588907  0.75876140  0.29106357    -0.90900
O272        O  0.73333904  0.78581118  0.35859928    -0.76800
O273        O  0.75244940  0.75334586  0.30059464    -0.86300
O274        O  0.70472551  0.79821427  0.30233788    -0.86000
O275        O  0.72548939  0.73378687  0.24380238    -0.72800
O276        O  0.68186576  0.77480850  0.24665501    -0.84900
Zr277      Zr  0.76720875  0.82147447  0.22485914     2.26400
Zr278      Zr  0.77881101  0.74220235  0.25452704     2.06300
Zr279      Zr  0.68793152  0.82624468  0.25949780     2.10000
Zr280      Zr  0.75781096  0.80459455  0.31294242     1.78800
O281        O  0.65157919  0.84163815  0.22096083    -0.93700
O282        O  0.80189352  0.78205042  0.33751995    -0.41500
O283        O  0.74112498  0.83373846  0.27059739    -0.78200
O284        O  0.78559820  0.79372312  0.26776249    -0.96800
O285        O  0.76188810  0.77050940  0.21188179    -0.90200
O286        O  0.71442061  0.81442927  0.21391040    -0.93000
C287        C  0.71163501  0.76707437  0.36402842     1.00800
C288        C  0.62874840  0.78137485  0.28672496     1.13700
C289        C  0.74121119  0.68125304  0.28590395     1.04500
O290        O  0.81915780  0.72859180  0.28970582    -0.95100
O291        O  0.82629503  0.75827271  0.22982188    -0.90900
O292        O  0.81845446  0.80527915  0.21231261    -0.84000
C293        C  0.83496191  0.78203450  0.21573850     1.11100
O294        O  0.67021839  0.72472903  0.19366900    -0.97100
Zr295      Zr  0.70912680  0.76300026  0.20174940     1.88900
O296        O  0.76347980  0.82069080  0.17003643    -0.73800
O297        O  0.79547119  0.70635341  0.21711396    -0.53000
O298        O  0.72939832  0.72102542  0.17386632    -0.97700
O299        O  0.66452433  0.78125748  0.17464920    -0.54900
O300        O  0.73170729  0.78287102  0.15628606    -0.74300
C301        C  0.75048904  0.80409502  0.15024951     0.98100
O302        O  0.80363684  0.86297504  0.22253754    -0.63100
O303        O  0.66942003  0.86197972  0.29617150    -0.57900
O304        O  0.75012094  0.87282160  0.22286451    -0.94600
O305        O  0.70361780  0.87697022  0.24551864    -0.93000
O306        O  0.74394984  0.84597916  0.34515934    -0.93400
O307        O  0.79722789  0.84260700  0.31995682    -0.92200
C308        C  0.72717693  0.88801554  0.23197069     1.16900
H309        H  0.69210835  0.80331913  0.31935597     0.32800
H310        H  0.80701179  0.79807027  0.27118792     0.43700
H311        H  0.70803508  0.82720349  0.19753734     0.37200
H312        H  0.72160756  0.71322008  0.23876124     0.33700
H313        H  0.80461637  0.79339145  0.35638541     0.25500
H314        H  0.80854891  0.69218845  0.22831450     0.31400
H315        H  0.75120048  0.72617306  0.17028305     0.37300
H316        H  0.73653747  0.86153132  0.33109969     0.31800
H317        H  0.65106905  0.87079700  0.28667603     0.30700
H318        H  0.63367868  0.84901964  0.23225908     0.32400
H319        H  0.67132453  0.80014505  0.16503789     0.31300
H320        H  0.80144168  0.85032515  0.29941761     0.35300
H321        H  0.82125024  0.85708726  0.23520787     0.28100
H322        H  0.66254586  0.69921141  0.31373234     0.32300
H323        H  0.66770952  0.71492092  0.21356889     0.35100
H324        H  0.66129042  0.84985962  0.31311872     0.27700
H325        H  0.81153684  0.86313954  0.20162496     0.40600
H326        H  0.83000813  0.71207644  0.27974867     0.30700
H327        H  0.79469283  0.76212481  0.34425893     0.38300
H328        H  0.65018479  0.78745161  0.19065093     0.30100
H329        H  0.77685676  0.69471809  0.21199463     0.30200
H330        H  0.66213768  0.69498223  0.27852912     0.30500
C331        C  0.20387786  0.21690879  0.03107612     0.79700
N332        N  0.21418503  0.22624376  0.00361218    -0.78600
C333        C  0.19749444  0.22040526  0.97833776     0.82100
N334        N  0.17040005  0.20528277  0.98075570    -0.78600
C335        C  0.16020352  0.19549155  0.00800243     0.82200
N336        N  0.17702794  0.20153060  0.03288791    -0.80300
Zr337      Zr  0.19825915  0.23967316  0.78367567     2.17500
O338        O  0.16196506  0.22512666  0.82306703    -0.51900
O339        O  0.20117812  0.18643138  0.77696361    -0.75100
O340        O  0.14610874  0.23353936  0.76638442    -0.81900
O341        O  0.25597895  0.25951197  0.84632298    -0.83600
O342        O  0.13955829  0.25483144  0.72030716    -0.79200
O343        O  0.20921983  0.23893956  0.83707734    -0.90900
O344        O  0.23675909  0.17474660  0.74194366    -0.76800
O345        O  0.20654073  0.23025654  0.73177173    -0.86300
O346        O  0.25152790  0.22943747  0.77979398    -0.86000
O347        O  0.18093498  0.28406004  0.75846064    -0.72800
O348        O  0.22344090  0.28342716  0.80218508    -0.84900
Zr349      Zr  0.26860949  0.30890050  0.71896765     2.26400
Zr350      Zr  0.19027772  0.27454747  0.70603445     2.06300
Zr351      Zr  0.27705124  0.27384424  0.79696862     2.10000
Zr352      Zr  0.26009511  0.22152098  0.72739942     1.78800
O353        O  0.29686835  0.30522328  0.83716115    -0.93700
O354        O  0.24653824  0.19545370  0.68119715    -0.41500
O355        O  0.28624123  0.26525882  0.74462323    -0.78200
O356        O  0.24396937  0.26495155  0.70032889    -0.96800
O357        O  0.21546954  0.31860582  0.72367036    -0.90200
O358        O  0.26089284  0.31790162  0.77112886    -0.93000
C359        C  0.21554575  0.16782625  0.76058272     1.00800
C360        C  0.23039689  0.24778151  0.85498498     1.13700
C361        C  0.12960369  0.24065704  0.74370925     1.04500
O362        O  0.17688298  0.23761674  0.66826174    -0.95100
O363        O  0.20824688  0.29725739  0.65864119    -0.90900
O364        O  0.25269613  0.32206021  0.66854905    -0.84000
C365        C  0.23099492  0.31410178  0.65084307     1.11100
O366        O  0.16265112  0.32806307  0.80841812    -0.97100
Zr367      Zr  0.20766935  0.32724783  0.77589772     1.88900
O368        O  0.26644270  0.36249161  0.72337032    -0.73800
O369        O  0.15329246  0.31016423  0.68672616    -0.53000
O370        O  0.16685078  0.35969938  0.75851316    -0.97700
O371        O  0.22228939  0.35011661  0.82351356    -0.54900
O372        O  0.22983190  0.37364591  0.75777553    -0.74300
C373        C  0.25073785  0.38094182  0.73879772     0.98100
O374        O  0.31009713  0.30411151  0.68244375    -0.63100
O375        O  0.31269968  0.23429684  0.80977738    -0.57900
O376        O  0.31816122  0.32220010  0.73783651    -0.94600
O377        O  0.32560478  0.29846264  0.78262548    -0.93000
O378        O  0.30333514  0.19399899  0.74774871    -0.93400
O379        O  0.30353638  0.21773519  0.69328134    -0.92200
C380        C  0.33465616  0.31513161  0.76052577     1.16900
H381        H  0.25703633  0.21229877  0.79184046     0.32800
H382        H  0.24907805  0.26225160  0.67937855     0.43700
H383        H  0.27282833  0.33480054  0.77786625     0.37200
H384        H  0.15955921  0.28774598  0.76224221     0.33700
H385        H  0.22402053  0.19292713  0.68221069     0.25500
H386        H  0.14030650  0.29853816  0.67271676     0.31400
H387        H  0.16224282  0.35292161  0.73784113     0.37300
H388        H  0.29431311  0.17903000  0.76166659     0.31800
H389        H  0.32886836  0.23573421  0.79419639     0.30700
H390        H  0.31660403  0.29617166  0.84299791     0.32400
H391        H  0.24489629  0.35161898  0.82290397     0.31300
H392        H  0.30281508  0.23606754  0.68080966     0.35300
H393        H  0.32446640  0.28974979  0.69166829     0.28100
H394        H  0.15268353  0.20601813  0.81656045     0.32300
H395        H  0.16210532  0.34832651  0.81705853     0.35100
H396        H  0.32282909  0.24108263  0.82848635     0.27700
H397        H  0.30125196  0.29299561  0.66529533     0.40600
H398        H  0.19429738  0.23789153  0.65398861     0.30700
H399        H  0.24985941  0.21005559  0.66469091     0.38300
H400        H  0.21799507  0.33463163  0.83897716     0.30100
H401        H  0.13976724  0.31442933  0.70401425     0.30200
H402        H  0.14515051  0.23976609  0.82222386     0.30500
Zr403      Zr  0.19355261  0.80833385  0.78932009     2.17500
O404        O  0.15143393  0.80660273  0.82540196    -0.51900
O405        O  0.19944109  0.86202011  0.78968520    -0.75100
O406        O  0.21094344  0.81550238  0.84044740    -0.81900
O407        O  0.13746680  0.80638398  0.72290685    -0.83600
O408        O  0.25494307  0.79013660  0.84881423    -0.79200
O409        O  0.14378431  0.82200219  0.77120977    -0.90900
O410        O  0.23624125  0.87529116  0.75587950    -0.76800
O411        O  0.24731008  0.81574537  0.78680359    -0.86300
O412        O  0.20349409  0.82319318  0.73875196    -0.86000
O413        O  0.21424487  0.76119590  0.80395165    -0.72800
O414        O  0.17436645  0.76861631  0.75867013    -0.84900
Zr415      Zr  0.26095579  0.74393210  0.71871327     2.26400
Zr416      Zr  0.26852798  0.76851429  0.80022818     2.06300
Zr417      Zr  0.18550450  0.78337911  0.70784646     2.10000
Zr418      Zr  0.25741690  0.82992448  0.73599961     1.78800
O419        O  0.14429066  0.75208772  0.68847116    -0.93700
O420        O  0.30050014  0.85505249  0.76012166    -0.41500
O421        O  0.23971390  0.79067649  0.70406230    -0.78200
O422        O  0.28030327  0.78348865  0.74945924    -0.96800
O423        O  0.25079790  0.72876030  0.76907205    -0.90200
O424        O  0.20714866  0.73644706  0.72108273    -0.93000
C425        C  0.21554379  0.88139000  0.77523266     1.00800
C426        C  0.12817214  0.81924142  0.74699043     1.13700
C427        C  0.23292933  0.80687666  0.85739823     1.04500
O428        O  0.31288354  0.79669425  0.81773010    -0.95100
O429        O  0.31465045  0.74180331  0.78619530    -0.90900
O430        O  0.30875023  0.72589455  0.73796520    -0.84000
C431        C  0.32390383  0.72826675  0.76249325     1.11100
O432        O  0.15314204  0.71654539  0.80518573    -0.97100
Zr433      Zr  0.19697525  0.72185879  0.77165388     1.88900
O434        O  0.25492827  0.69054197  0.71730197    -0.73800
O435        O  0.27380552  0.72947991  0.83820508    -0.53000
O436        O  0.21010138  0.69072042  0.81477491    -0.97700
O437        O  0.15341316  0.69682278  0.74817502    -0.54900
O438        O  0.21769149  0.67666387  0.75032363    -0.74300
C439        C  0.23819501  0.67092854  0.73059346     0.98100
O440        O  0.30234275  0.75056482  0.68221452    -0.63100
O441        O  0.17565188  0.82415815  0.67280963    -0.57900
O442        O  0.24483742  0.73678878  0.66731583    -0.94600
O443        O  0.20306542  0.76564653  0.65876095    -0.93000
O444        O  0.24664044  0.85878524  0.69064680    -0.93400
O445        O  0.30131711  0.83650207  0.70275143    -0.92200
C446        C  0.22440650  0.74808381  0.65009229     1.16900
H447        H  0.19276648  0.84120857  0.73349070     0.32800
H448        H  0.30218864  0.78544974  0.74689917     0.43700
H449        H  0.20048903  0.72121136  0.70722084     0.37200
H450        H  0.20854312  0.75648232  0.82445760     0.33700
H451        H  0.29238311  0.86211478  0.77960026     0.25500
H452        H  0.28787133  0.73802709  0.85341744     0.31400
H453        H  0.23053373  0.68264430  0.80994920     0.37300
H454        H  0.22534111  0.86567807  0.69314148     0.31800
H455        H  0.19504204  0.82689006  0.66154344     0.30700
H456        H  0.14055860  0.75965359  0.66781693     0.32400
H457        H  0.16197275  0.68568679  0.73099790     0.31300
H458        H  0.30215832  0.81780077  0.69112454     0.35300
H459        H  0.29517767  0.76629552  0.66821945     0.28100
H460        H  0.15341592  0.82495666  0.83752256     0.32300
H461        H  0.15508864  0.73339040  0.81934785     0.35100
H462        H  0.16116768  0.81573368  0.65791447     0.27700
H463        H  0.31922732  0.76032692  0.69341001     0.40600
H464        H  0.30495343  0.81680548  0.82206966     0.30700
H465        H  0.31470290  0.83886565  0.76570283     0.38300
H466        H  0.14157609  0.71307148  0.73868388     0.30100
H467        H  0.25367943  0.72844773  0.84843475     0.30200
H468        H  0.15634992  0.79011644  0.83946667     0.30500
Zr469      Zr  0.76621740  0.25299548  0.79222428     2.17500
O470        O  0.80963435  0.25419959  0.82673902    -0.51900
O471        O  0.76281940  0.19910112  0.79201627    -0.75100
O472        O  0.75049838  0.24591791  0.84418876    -0.81900
O473        O  0.82506084  0.26500175  0.72926539    -0.83600
O474        O  0.70439804  0.26808068  0.85127063    -0.79200
O475        O  0.81738401  0.24328564  0.77512234    -0.90900
O476        O  0.72804442  0.18450739  0.75709023    -0.76800
O477        O  0.71296091  0.24236480  0.78841273    -0.86300
O478        O  0.75860461  0.23970095  0.74095699    -0.86000
O479        O  0.74181796  0.29806072  0.80754881    -0.72800
O480        O  0.78339007  0.29521729  0.76331042    -0.84900
Zr481      Zr  0.69665892  0.31656807  0.72198584     2.26400
Zr482      Zr  0.68805610  0.28771827  0.80222194     2.06300
Zr483      Zr  0.77483046  0.28204464  0.71178725     2.10000
Zr484      Zr  0.70521834  0.22971217  0.73697044     1.78800
O485        O  0.81464488  0.31474533  0.69150525    -0.93700
O486        O  0.66214208  0.20295320  0.75968806    -0.41500
O487        O  0.72113198  0.27160050  0.70662133    -0.78200
O488        O  0.67916475  0.27424343  0.75071310    -0.96800
O489        O  0.70429875  0.32996647  0.77305063    -0.90200
O490        O  0.74984890  0.32709740  0.72603867    -0.93000
C491        C  0.74816378  0.17901682  0.77739621     1.00800
C492        C  0.83430045  0.25051467  0.75263652     1.13700
C493        C  0.72794783  0.25375223  0.86073972     1.04500
O494        O  0.64748448  0.25467599  0.82035102    -0.95100
O495        O  0.63939749  0.31015280  0.78663833    -0.90900
O496        O  0.64591972  0.32802666  0.73895056    -0.84000
C497        C  0.62989019  0.32355243  0.76269341     1.11100
O498        O  0.80173608  0.34467200  0.81072334    -0.97100
Zr499      Zr  0.75758955  0.33980322  0.77747605     1.88900
O500        O  0.69892022  0.37059554  0.72438485    -0.73800
O501        O  0.67548630  0.32553454  0.83919823    -0.53000
O502        O  0.74260773  0.36536321  0.82334018    -0.97700
O503        O  0.79795302  0.37082154  0.75530259    -0.54900
O504        O  0.73285382  0.38482592  0.76028329    -0.74300
C505        C  0.71277018  0.39047240  0.74008223     0.98100
O506        O  0.65484996  0.31392683  0.68561668    -0.63100
O507        O  0.78770312  0.24147126  0.67806531    -0.57900
O508        O  0.71369067  0.32474289  0.67075494    -0.94600
O509        O  0.75838160  0.30088070  0.66222644    -0.93000
O510        O  0.71742834  0.20092272  0.69235036    -0.93400
O511        O  0.66265474  0.22329254  0.70207434    -0.92200
C512        C  0.73557352  0.31671602  0.65342115     1.16900
H513        H  0.77051214  0.22248446  0.73558321     0.32800
H514        H  0.65755556  0.27083374  0.74729775     0.43700
H515        H  0.75578475  0.34337088  0.71283519     0.37200
H516        H  0.74690360  0.30256213  0.82834230     0.33700
H517        H  0.66263169  0.18288539  0.75059465     0.25500
H518        H  0.66011472  0.31581767  0.85249078     0.31400
H519        H  0.72129582  0.37177416  0.81965214     0.37300
H520        H  0.70888062  0.18080101  0.69648780     0.31800
H521        H  0.76843193  0.23697777  0.66721106     0.30700
H522        H  0.82148970  0.30488362  0.67283267     0.32400
H523        H  0.78850282  0.38082266  0.73772215     0.31300
H524        H  0.66435880  0.24045718  0.68803893     0.35300
H525        H  0.65523109  0.33323825  0.67469694     0.28100
H526        H  0.80870197  0.23513442  0.83806863     0.32300
H527        H  0.80301846  0.36608641  0.81581558     0.35100
H528        H  0.80121716  0.25070110  0.66265443     0.27700
H529        H  0.66108427  0.29898290  0.67056081     0.40600
H530        H  0.63480614  0.25047036  0.80237282     0.30700
H531        H  0.66817018  0.19964930  0.78093119     0.38300
H532        H  0.81241333  0.35647820  0.74641606     0.30100
H533        H  0.69400460  0.32753084  0.85189327     0.30200
H534        H  0.80483357  0.26973807  0.84168679     0.30500
Zr535      Zr  0.75629896  0.81914857  0.79409341     2.17500
O536        O  0.75362285  0.85622712  0.83392932    -0.51900
O537        O  0.81114599  0.82370519  0.78707875    -0.75100
O538        O  0.77281763  0.80034568  0.84242156    -0.81900
O539        O  0.73556585  0.87765794  0.73506123    -0.83600
O540        O  0.75328626  0.75381940  0.85032641    -0.79200
O541        O  0.75806469  0.87122045  0.78091037    -0.90900
O542        O  0.82556884  0.79144246  0.75066180    -0.76800
O543        O  0.77122820  0.76905131  0.78625904    -0.86300
O544        O  0.76555390  0.81598248  0.74141983    -0.86000
O545        O  0.71428118  0.78945771  0.81245389    -0.72800
O546        O  0.70892027  0.83251651  0.77067010    -0.84900
Zr547      Zr  0.69143851  0.74730249  0.72663614     2.26400
Zr548      Zr  0.72892209  0.73897474  0.80316378     2.06300
Zr549      Zr  0.71814152  0.82825172  0.71774932     2.10000
Zr550      Zr  0.77995028  0.76556168  0.73359162     1.78800
O551        O  0.67905206  0.86444480  0.70448987    -0.93700
O552        O  0.81472422  0.72693385  0.75085791    -0.41500
O553        O  0.73304077  0.77781423  0.70891588    -0.78200
O554        O  0.73877302  0.73397826  0.75024801    -0.96800
O555        O  0.68160723  0.75090133  0.77907656    -0.90200
O556        O  0.67620539  0.79752303  0.73444390    -0.93000
C557        C  0.83124543  0.81168212  0.77013114     1.00800
C558        C  0.74912569  0.88747151  0.75888105     1.13700
C559        C  0.76828138  0.77710447  0.85872156     1.04500
O560        O  0.76681431  0.70193165  0.81703444    -0.95100
O561        O  0.71038010  0.68967308  0.78843465    -0.90900
O562        O  0.68425447  0.69635602  0.74461408    -0.84000
C563        C  0.69398324  0.68007923  0.76642971     1.11100
O564        O  0.65961950  0.83732744  0.82704219    -0.97100
Zr565      Zr  0.66749406  0.80122120  0.78720013     1.88900
O566        O  0.63632121  0.74662881  0.73003227    -0.73800
O567        O  0.69192549  0.72388058  0.84150556    -0.53000
O568        O  0.64306545  0.78075634  0.83219018    -0.97700
O569        O  0.63401276  0.84194602  0.77247464    -0.54900
O570        O  0.62211079  0.77618332  0.76884460    -0.74300
C571        C  0.61630318  0.75805622  0.74745117     0.98100
O572        O  0.69361867  0.71110954  0.68596240    -0.62500
O573        O  0.75252612  0.84528824  0.67791104    -0.57900
O574        O  0.68114961  0.76335592  0.67563782    -0.94600
O575        O  0.69670502  0.81157611  0.66967127    -0.93000
O576        O  0.80378858  0.78266767  0.68692166    -0.93400
O577        O  0.78545943  0.72667797  0.69607223    -0.92200
C578        C  0.68494252  0.78711548  0.65984715     1.16900
H579        H  0.78132942  0.82981678  0.73493228     0.32800
H580        H  0.74393267  0.71366190  0.74553109     0.43700
H581        H  0.65795381  0.80203459  0.72308658     0.37200
H582        H  0.71140848  0.79267072  0.83374806     0.33700
H583        H  0.83303985  0.72924341  0.73787657     0.25500
H584        H  0.70094042  0.70604458  0.85112687     0.31400
H585        H  0.64039979  0.75925560  0.82803638     0.37300
H586        H  0.80691839  0.80435377  0.68956784     0.31800
H587        H  0.75636723  0.82734760  0.66566827     0.30700
H588        H  0.65959247  0.85299481  0.70393357     0.32400
H589        H  0.62523736  0.83602164  0.75283547     0.31300
H590        H  0.76487154  0.72469061  0.68693611     0.35300
H591        H  0.70961063  0.69672836  0.69191699     0.28100
H592        H  0.77432387  0.85714926  0.84299533     0.32300
H593        H  0.67945881  0.84803170  0.82869403     0.35100
H594        H  0.73971506  0.85809575  0.66487044     0.27700
H595        H  0.67410405  0.69974673  0.68705080     0.40600
H596        H  0.77769905  0.69768329  0.79800790     0.30700
H597        H  0.82166488  0.73353681  0.77097991     0.38300
H598        H  0.64806730  0.85871930  0.76758336     0.30100
H599        H  0.69319269  0.73950462  0.85709053     0.30200
H600        H  0.74029980  0.84735526  0.84972040     0.30500
C601        C  0.49687228  0.71532900  0.71818568     0.79700
N602        N  0.47117953  0.71767575  0.73512548    -0.78600
C603        C  0.44570992  0.70155207  0.72829134     0.82100
N604        N  0.44661585  0.68242435  0.70469047    -0.78600
C605        C  0.47227252  0.67984830  0.68782981     0.82200
N606        N  0.49738133  0.69630482  0.69463751    -0.80300
C607        C  0.28281605  0.50081445  0.70814078     0.79700
N608        N  0.30343104  0.50118251  0.68534283    -0.78600
C609        C  0.31042209  0.52684427  0.67068783     0.82100
N610        N  0.29619833  0.55223208  0.67878161    -0.78600
C611        C  0.27540647  0.55225856  0.70154474     0.82200
N612        N  0.26848736  0.52632426  0.71606915    -0.80300
C613        C  0.50843621  0.35171925  0.72567678     0.79700
N614        N  0.48107909  0.34605048  0.73915854    -0.78600
C615        C  0.45454313  0.35338571  0.72500508     0.82100
N616        N  0.45560276  0.36590105  0.69699992    -0.78600
C617        C  0.48284041  0.37138612  0.68320169     0.82200
N618        N  0.50909246  0.36453101  0.69792875    -0.80300
C619        C  0.67276465  0.51122470  0.71930356     0.79700
N620        N  0.65432489  0.51329623  0.69487471    -0.78600
C621        C  0.64064995  0.53912820  0.68718251     0.82100
N622        N  0.64559227  0.56355439  0.70446761    -0.78600
C623        C  0.66396511  0.56204139  0.72925167     0.82200
N624        N  0.67788210  0.53584969  0.73640166    -0.80300
C625        C  0.51197458  0.36005741  0.28057066     0.79700
N626        N  0.51114493  0.37476185  0.30710585    -0.78600
C627        C  0.48423636  0.38201090  0.32006756     0.82100
N628        N  0.45769466  0.37457723  0.30590951    -0.78600
C629        C  0.45798721  0.35925818  0.27952024     0.82200
N630        N  0.48531028  0.35196033  0.26695549    -0.80300
C631        C  0.69428264  0.51191293  0.31568890     0.79700
N632        N  0.67141066  0.51512090  0.33596291    -0.78600
C633        C  0.66455942  0.54195209  0.34775457     0.82100
N634        N  0.68125929  0.56622559  0.33929280    -0.78600
C635        C  0.70464489  0.56358429  0.31924430     0.82200
N636        N  0.71097807  0.53642306  0.30721081    -0.80300
C637        C  0.50776630  0.74779405  0.32503731     0.79700
N638        N  0.50768322  0.72365525  0.34364936    -0.78600
C639        C  0.48102023  0.71264085  0.35497080     0.82100
N640        N  0.45442134  0.72632742  0.34773842    -0.78600
C641        C  0.45419754  0.75077602  0.32948643     0.82200
N642        N  0.48102448  0.76133249  0.31793731    -0.80300
C643        C  0.27548623  0.50844149  0.31400354     0.79700
N644        N  0.30152729  0.51205079  0.33017548    -0.78600
C645        C  0.31050686  0.53914958  0.33994537     0.82100
N646        N  0.29311631  0.56311198  0.33356651    -0.78600
C647        C  0.26713890  0.56019319  0.31703227     0.82200
N648        N  0.25844145  0.53279037  0.30685465    -0.80300
C649        C  0.66920053  0.74690273  0.48551213     0.79700
N650        N  0.67481777  0.76198605  0.51154667    -0.78600
C651        C  0.66219331  0.75205188  0.53796317     0.82100
N652        N  0.64433598  0.72705659  0.53785440    -0.78600
C653        C  0.63903987  0.71180620  0.51213096     0.82200
N654        N  0.65120844  0.72214786  0.48610653    -0.80300
C655        C  0.70920644  0.35307175  0.47863166     0.79700
N656        N  0.72009742  0.34533890  0.50637101    -0.78600
C657        C  0.70563011  0.35496394  0.53170558     0.82100
N658        N  0.67980768  0.37131896  0.52869777    -0.78600
C659        C  0.66885775  0.37921022  0.50128953     0.82200
N660        N  0.68365454  0.36995691  0.47627025    -0.80300
C661        C  0.27141822  0.71370572  0.48153798     0.79700
N662        N  0.29521966  0.69474934  0.48447406    -0.78600
C663        C  0.30357854  0.68390839  0.51170679     0.82100
N664        N  0.28745881  0.69173462  0.53647415    -0.78600
C665        C  0.26350673  0.71076889  0.53402323     0.82200
N666        N  0.25576893  0.72209259  0.50654252    -0.80300
C667        C  0.26646339  0.34072237  0.47571158     0.79700
N668        N  0.29245377  0.35758167  0.47540757    -0.78600
C669        C  0.30548514  0.36699158  0.50146764     0.82100
N670        N  0.29159138  0.35999791  0.52795290    -0.78600
C671        C  0.26548842  0.34321981  0.52878973     0.82200
N672        N  0.25295592  0.33354174  0.50246387    -0.80300
O673        O  0.89983848  0.97911416  0.00313162    -0.87000
O674        O  0.07261862  0.99204257  0.00302201    -0.87200
O675        O  0.98730949  0.95190369  0.95126689    -0.88900
O676        O  0.98933415  0.94694489  0.04938587    -0.87600
O677        O  0.98697936  0.98012967  0.08841947    -0.87200
O678        O  0.98197189  0.98998600  0.91708017    -0.88600
O679        O  0.03843109  0.95305851  0.00143684    -0.87100
O680        O  0.93964574  0.94596214  0.00159688    -0.86700
Zr681      Zr  0.98703505  0.97383737  0.00193849     2.84300
O682        O  0.01646663  0.00415767  0.03350614    -1.08600
O683        O  0.95266293  0.00278345  0.97435668    -1.09400
C684        C  0.91104966  0.95260590  0.00176841     1.06100
C685        C  0.06586918  0.96403011  0.00241554     1.06000
C686        C  0.98498440  0.96220263  0.92403969     1.09000
C687        C  0.98893389  0.95347371  0.07760133     1.06800
H688        H  0.02799212  0.99597195  0.95944162     0.32300
O689        O  0.01488467  0.00723825  0.97254743    -1.29600
H690        H  0.94322590  0.98589447  0.04684944     0.32000
O691        O  0.95488234  0.99986867  0.03472835    -1.31300
O692        O  0.06581123  0.08796337  0.00585633    -0.87000
O693        O  0.89254735  0.07573793  0.00971799    -0.88500
O694        O  0.02974622  0.03687393  0.91965828    -0.87100
O695        O  0.03530349  0.03025206  0.08915022    -0.87200
O696        O  0.93579655  0.02589808  0.09206265    -0.86900
O697        O  0.93050751  0.03284493  0.92132547    -0.86700
O698        O  0.97907319  0.12072760  0.95874450    -0.87100
O699        O  0.97956801  0.11602831  0.05826468    -0.86500
O700        O  0.98028435  0.08526909  0.92169764    -0.87600
O701        O  0.98318661  0.07773258  0.09283806    -0.86700
O702        O  0.06805601  0.03961714  0.95463198    -0.87100
O703        O  0.89427806  0.02989000  0.95870111    -0.86900
O704        O  0.89763585  0.02451518  0.05661758    -0.86500
O705        O  0.07095132  0.03569754  0.05160547    -0.86900
O706        O  0.02744898  0.12245940  0.00813715    -0.87200
O707        O  0.92695320  0.11481075  0.00866154    -0.88600
Zr708      Zr  0.04391481  0.03813667  0.00385041     2.83100
Zr709      Zr  0.92115854  0.02947270  0.00689215     2.83500
Zr710      Zr  0.98068194  0.03637147  0.94499299     2.84100
Zr711      Zr  0.98457501  0.03036651  0.06599655     2.83400
Zr712      Zr  0.97892872  0.09439253  0.00769048     2.84200
O713        O  0.95109709  0.06028346  0.03777285    -1.09100
O714        O  0.01069644  0.06758915  0.97529688    -1.08600
C715        C  0.05598000  0.11494052  0.00754362     1.06000
C716        C  0.89945403  0.10377780  0.00952617     1.08700
C717        C  0.05821721  0.03766617  0.92734813     1.06200
C718        C  0.06314524  0.03218281  0.07944521     1.06600
C719        C  0.90743225  0.02418630  0.08409919     1.06200
C720        C  0.90260871  0.03082379  0.93079806     1.05700
C721        C  0.98035483  0.11245040  0.93086060     1.06100
C722        C  0.98140315  0.10557541  0.08543444     1.05600
H723        H  0.93513378  0.07535957  0.96495397     0.32300
O724        O  0.94888696  0.06342403  0.97692154    -1.30200
H725        H  0.02481535  0.07695536  0.04916728     0.32300
O726        O  0.01228135  0.06459389  0.03631934    -1.31600
O727        O  0.47827705  0.60794521  0.56239256    -0.87000
O728        O  0.48648955  0.44027227  0.55025039    -0.87200
O729        O  0.43182436  0.52224726  0.58912873    -0.88900
O730        O  0.53129032  0.52678848  0.59215703    -0.87600
O731        O  0.56971439  0.53145570  0.55715275    -0.87200
O732        O  0.39546322  0.52139205  0.55172919    -0.88600
O733        O  0.48536006  0.47486119  0.58803609    -0.87100
O734        O  0.48004767  0.56865787  0.59519555    -0.86700
Zr735      Zr  0.48242917  0.52386298  0.56593965     2.84300
O736        O  0.51547173  0.49782235  0.53463078    -1.08600
O737        O  0.45052314  0.55458679  0.53773874    -1.09400
C738        C  0.47825359  0.59661359  0.58930031     1.06100
C739        C  0.48678584  0.44798288  0.57836420     1.06000
C740        C  0.40391178  0.52146476  0.57953419     1.09000
C741        C  0.55967699  0.52980354  0.58449529     1.06800
H742        H  0.44039744  0.48081170  0.54505702     0.32300
O743        O  0.45297841  0.49451284  0.53351525    -1.29600
H744        H  0.52447367  0.57039664  0.55326485     0.32000
O745        O  0.51273079  0.55823563  0.53953934    -1.31300
O746        O  0.48634303  0.44780252  0.45106851    -0.87000
O747        O  0.48230943  0.61722086  0.46430038    -0.88500
O748        O  0.39835390  0.47702824  0.49897649    -0.87100
O749        O  0.57253778  0.48544709  0.50494295    -0.87200
O750        O  0.56781127  0.58298983  0.51063091    -0.86900
O751        O  0.39470014  0.57219711  0.50914056    -0.86700
O752        O  0.43622308  0.53699388  0.41880143    -0.87100
O753        O  0.53525159  0.53785667  0.42220551    -0.86500
O754        O  0.39881195  0.53139840  0.45454661    -0.87600
O755        O  0.57163273  0.53805058  0.45943095    -0.86700
O756        O  0.43625999  0.44187187  0.49987281    -0.87100
O757        O  0.43003811  0.61010966  0.51295242    -0.86900
O758        O  0.52834560  0.61614584  0.51366706    -0.86500
O759        O  0.53720655  0.44726215  0.50194622    -0.86900
O760        O  0.48472356  0.48725018  0.41785462    -0.87200
O761        O  0.48470131  0.58455645  0.42476846    -0.88600
Zr762      Zr  0.48589111  0.46827916  0.50206295     2.83100
Zr763      Zr  0.48074484  0.58857305  0.51100410     2.83500
Zr764      Zr  0.42220962  0.52570973  0.50401910     2.84100
Zr765      Zr  0.54545843  0.53249340  0.50756626     2.83400
Zr766      Zr  0.48493975  0.53393415  0.44558443     2.84200
O767        O  0.51372537  0.56311608  0.47881532    -1.09100
O768        O  0.45483240  0.49937143  0.47246806    -1.08600
C769        C  0.48500899  0.45912716  0.42421988     1.06000
C770        C  0.48386524  0.61104697  0.43599818     1.08700
C771        C  0.40787251  0.44993880  0.49850647     1.06200
C772        C  0.56487367  0.45764332  0.50315569     1.06600
C773        C  0.55696644  0.60966912  0.51302663     1.06200
C774        C  0.40236529  0.59981496  0.51228811     1.05700
C775        C  0.40790483  0.53599234  0.42724577     1.06100
C776        C  0.56321505  0.53897705  0.43155647     1.05600
H777        H  0.43922398  0.57324074  0.46552882     0.32300
O778        O  0.45207815  0.56012131  0.47718391    -1.30200
H779        H  0.52971581  0.49205096  0.46146508     0.32300
O780        O  0.51623370  0.50278451  0.47468166    -1.31600
C781        C  0.38092492  0.40660924  0.52153529    -0.20900
C782        C  0.38384244  0.42656766  0.49728471    -0.07400
C783        C  0.36199304  0.42580238  0.47385337     0.13400
C784        C  0.33738068  0.40553249  0.47558201    -0.20900
C785        C  0.33339067  0.38643824  0.50055951    -0.07400
C786        C  0.35587125  0.38674480  0.52370985     0.13400
C787        C  0.35402775  0.36619280  0.55065812    -0.24300
H788        H  0.39771291  0.40744300  0.53950768     0.14700
H789        H  0.32056290  0.40533452  0.45764080     0.14700
C790        C  0.36467932  0.44619794  0.44683256    -0.24200
H791        H  0.37469215  0.36810598  0.56512952     0.05000
H792        H  0.35212326  0.34272387  0.54311235     0.08200
H793        H  0.33400999  0.37189970  0.56479490     0.08200
H794        H  0.38708930  0.44280555  0.43566257     0.08200
H795        H  0.36279525  0.46978787  0.45381237     0.08200
H796        H  0.34635751  0.44178963  0.43005315     0.04900
C797        C  0.38069450  0.64829612  0.49806322    -0.20900
C798        C  0.37757319  0.62171310  0.51445648    -0.07400
C799        C  0.35135311  0.61698648  0.53263657     0.13400
C800        C  0.32785379  0.63815517  0.53214526    -0.20900
C801        C  0.33011010  0.66382004  0.51400473    -0.07400
C802        C  0.35744552  0.66947762  0.49770474     0.13400
C803        C  0.36269452  0.69795644  0.48023874    -0.24300
H804        H  0.40120749  0.65220558  0.48479614     0.14700
H805        H  0.30732304  0.63427695  0.54536431     0.14700
C806        C  0.34854501  0.59031311  0.55331251    -0.24200
H807        H  0.38676662  0.70018345  0.47241234     0.05000
H808        H  0.35764959  0.71745198  0.49461543     0.08200
H809        H  0.34801075  0.69810123  0.45996047     0.08200
H810        H  0.36877094  0.58940087  0.56842215     0.08200
H811        H  0.34702523  0.56951208  0.54005078     0.08200
H812        H  0.32774733  0.59141704  0.56763194     0.04900
C813        C  0.61689271  0.39209697  0.51932603    -0.20900
C814        C  0.64116578  0.39798317  0.49928589    -0.07400
C815        C  0.63942898  0.42292198  0.47970137     0.13400
C816        C  0.61415345  0.44187038  0.48154747    -0.20900
C817        C  0.59012135  0.43610369  0.50174403    -0.07400
C818        C  0.59122505  0.41065418  0.52058717     0.13400
C819        C  0.56613852  0.40371408  0.54295491    -0.24300
H820        H  0.61816362  0.37296544  0.53428654     0.14700
H821        H  0.61308253  0.46138263  0.46706433     0.14700
C822        C  0.66454219  0.43045900  0.45760607    -0.24200
H823        H  0.57153318  0.38389153  0.55700969     0.05000
H824        H  0.54434475  0.39901578  0.53099098     0.08200
H825        H  0.56305156  0.42293647  0.55816287     0.08200
H826        H  0.66647024  0.41250356  0.44068071     0.08200
H827        H  0.68658482  0.43321680  0.46974182     0.08200
H828        H  0.65994871  0.45151912  0.44520309     0.04900
C829        C  0.59389689  0.68441240  0.53204924    -0.20900
C830        C  0.61902396  0.68493602  0.51239383    -0.07400
C831        C  0.62444369  0.65989418  0.49389696     0.13400
C832        C  0.60437602  0.63528047  0.49540841    -0.20900
C833        C  0.57873076  0.63517443  0.51442284    -0.07400
C834        C  0.57357093  0.66008392  0.53320376     0.13400
C835        C  0.54712159  0.66114594  0.55505104    -0.24300
H836        H  0.58973910  0.70351316  0.54623776     0.14700
H837        H  0.60826246  0.61629184  0.48099478     0.14700
C838        C  0.65160042  0.65847902  0.47299266    -0.24200
H839        H  0.54830087  0.68115826  0.56959889     0.05000
H840        H  0.54736819  0.64119356  0.56996208     0.08200
H841        H  0.52510487  0.66215258  0.54267017     0.08200
H842        H  0.67306410  0.66241183  0.48581788     0.08200
H843        H  0.64943967  0.67537439  0.45478886     0.08200
H844        H  0.65333169  0.63639933  0.46203122     0.04900
C845        C  0.38898409  0.52956879  0.37475158    -0.20900
C846        C  0.38386585  0.54026193  0.40396194    -0.07400
C847        C  0.35563913  0.55433680  0.41037218     0.13400
C848        C  0.33284261  0.55527233  0.38816010    -0.20900
C849        C  0.33705805  0.54177308  0.36016474    -0.07400
C850        C  0.36564688  0.52925659  0.35307007     0.13400
C851        C  0.37166248  0.51561885  0.32271835    -0.24300
H852        H  0.41096510  0.52046373  0.36909884     0.14700
H853        H  0.31093936  0.56521111  0.39326687     0.14700
C854        C  0.34923906  0.56876503  0.44030138    -0.24200
H855        H  0.39578309  0.50833185  0.32048724     0.05000
H856        H  0.36702212  0.53217144  0.30463492     0.08200
H857        H  0.35681881  0.49571558  0.31949849     0.08200
H858        H  0.36769367  0.58504341  0.44571417     0.08200
H859        H  0.34750988  0.55162369  0.45833906     0.08200
H860        H  0.32721469  0.58093738  0.44009401     0.04900
C861        C  0.50504686  0.68365513  0.39645267    -0.20900
C862        C  0.48128129  0.68613551  0.37524153    -0.07400
C863        C  0.45900213  0.66302688  0.37347415     0.13400
C864        C  0.46103059  0.63834996  0.39301333    -0.20900
C865        C  0.48415529  0.63652431  0.41479578    -0.07400
C866        C  0.50652037  0.65937829  0.41652269     0.13400
C867        C  0.53225664  0.65796654  0.43914447    -0.24300
H868        H  0.52226280  0.70114149  0.39774612     0.14700
H869        H  0.44400245  0.62066867  0.39181087     0.14700
C870        C  0.43344822  0.66371496  0.35067232    -0.24200
H871        H  0.54863084  0.67685284  0.43632937     0.05000
H872        H  0.54511751  0.63693634  0.43636486     0.08200
H873        H  0.52294519  0.65894968  0.46235822     0.08200
H874        H  0.44306711  0.66636838  0.32765678     0.08200
H875        H  0.41776326  0.68235980  0.35555057     0.08200
H876        H  0.41957322  0.64285932  0.35118927     0.04900
C877        C  0.61189576  0.52673750  0.36180175    -0.20900
C878        C  0.63792987  0.54413582  0.36833992    -0.07400
C879        C  0.63848111  0.56106757  0.39506988     0.13400
C880        C  0.61347631  0.55933033  0.41491818    -0.20900
C881        C  0.58777121  0.54137517  0.40865411    -0.07400
C882        C  0.58682535  0.52511660  0.38146774     0.13400
C883        C  0.56017478  0.50503106  0.37345492    -0.24300
H884        H  0.61124177  0.51407227  0.34113525     0.14700
H885        H  0.61409082  0.57193559  0.43565272     0.14700
C886        C  0.66571419  0.57999608  0.40352471    -0.24200
H887        H  0.56441046  0.49257614  0.35235473     0.05000
H888        H  0.53926539  0.51845323  0.36988472     0.08200
H889        H  0.55613464  0.48846204  0.39174726     0.08200
H890        H  0.66885129  0.59817148  0.38672651     0.08200
H891        H  0.68652409  0.56601584  0.40452019     0.08200
H892        H  0.66274990  0.59048673  0.42590062     0.04900
C893        C  0.50488842  0.41529892  0.39660539    -0.20900
C894        C  0.48354351  0.43832979  0.39846667    -0.07400
C895        C  0.46134248  0.44138261  0.37548968     0.13400
C896        C  0.46165777  0.42208805  0.35080432    -0.20900
C897        C  0.48391844  0.39996668  0.34806623    -0.07400
C898        C  0.50561659  0.39624319  0.37158435     0.13400
C899        C  0.52919942  0.37194391  0.37094905    -0.24300
H900        H  0.52163796  0.41275747  0.41443247     0.14700
H901        H  0.44493474  0.42496436  0.33300608     0.14700
C902        C  0.43716515  0.46494260  0.37686921    -0.24200
H903        H  0.54242278  0.37086838  0.39228723     0.05000
H904        H  0.54584724  0.37611829  0.35250876     0.08200
H905        H  0.51774233  0.35001676  0.36774052     0.08200
H906        H  0.44833787  0.48712382  0.37518507     0.08200
H907        H  0.42430078  0.46305593  0.39835833     0.08200
H908        H  0.42051407  0.46305403  0.35805484     0.04900
C909        C  0.62879171  0.52081537  0.63583773    -0.20900
C910        C  0.62104314  0.53975608  0.65979121    -0.07400
C911        C  0.59380083  0.55647797  0.65776713     0.13400
C912        C  0.57446958  0.55259536  0.63283835    -0.20900
C913        C  0.58192996  0.53317748  0.60936218    -0.07400
C914        C  0.60978116  0.51751258  0.61055698     0.13400
C915        C  0.61903104  0.49643982  0.58594502    -0.24300
H916        H  0.64980634  0.50820019  0.63703033     0.14700
H917        H  0.55325842  0.56491919  0.63159478     0.14700
C918        C  0.58428887  0.57776982  0.68197358    -0.24200
H919        H  0.64082321  0.48500130  0.59132404     0.05000
H920        H  0.62247202  0.50889899  0.56453029     0.08200
H921        H  0.60100405  0.47913185  0.58283880     0.08200
H922        H  0.60152140  0.59597253  0.68382064     0.08200
H923        H  0.58201606  0.56568366  0.70373230     0.08200
H924        H  0.56190172  0.58822858  0.67691830     0.04900
C925        C  0.50883893  0.40839187  0.65050058    -0.20900
C926        C  0.48461750  0.38792068  0.65406790    -0.07400
C927        C  0.46302891  0.38469154  0.63038984     0.13400
C928        C  0.46559696  0.40304143  0.60455493    -0.20900
C929        C  0.48868264  0.42489930  0.60221675    -0.07400
C930        C  0.51084826  0.42724242  0.62535261     0.13400
C931        C  0.53640421  0.45012258  0.62418057    -0.24300
H932        H  0.52557158  0.41086318  0.66835613     0.14700
H933        H  0.44855826  0.40143711  0.58687336     0.14700
C934        C  0.43746136  0.36197168  0.63196779    -0.24200
H935        H  0.55291461  0.44714541  0.64296567     0.05000
H936        H  0.52701874  0.47288793  0.62608889     0.08200
H937        H  0.54924138  0.44822599  0.60276764     0.08200
H938        H  0.42142469  0.36746235  0.65043026     0.08200
H939        H  0.44706834  0.33945437  0.63582319     0.08200
H940        H  0.42399874  0.36139334  0.61075058     0.04900
C941        C  0.37782790  0.54755666  0.62037659    -0.20900
C942        C  0.37962156  0.52224483  0.60229177    -0.07400
C943        C  0.35810112  0.49891569  0.60585675     0.13400
C944        C  0.33539518  0.50136360  0.62801637    -0.20900
C945        C  0.33356811  0.52672153  0.64638052    -0.07400
C946        C  0.35500888  0.55027087  0.64230061     0.13400
C947        C  0.35485338  0.57788081  0.66145738    -0.24300
H948        H  0.39422345  0.56552913  0.61698729     0.14700
H949        H  0.31901927  0.48330712  0.63108420     0.14700
C950        C  0.35963023  0.47116435  0.58699209    -0.24200
H951        H  0.37454035  0.59288202  0.65622726     0.05000
H952        H  0.35635684  0.57161093  0.68563840     0.08200
H953        H  0.33364915  0.59068895  0.65727052     0.08200
H954        H  0.38219195  0.46036487  0.59011812     0.08200
H955        H  0.35655407  0.47691486  0.56284295     0.08200
H956        H  0.34150162  0.45477759  0.59333815     0.04900
C957        C  0.46745188  0.62880463  0.66827103    -0.20900
C958        C  0.47301847  0.65900040  0.66252049    -0.07400
C959        C  0.47924182  0.66874412  0.63292328     0.13400
C960        C  0.48082319  0.64786255  0.60978196    -0.20900
C961        C  0.47614759  0.61728961  0.61529837    -0.07400
C962        C  0.46909732  0.60765774  0.64523097     0.13400
C963        C  0.46296326  0.57548508  0.65359911    -0.24300
H964        H  0.46232880  0.62170103  0.69112909     0.14700
H965        H  0.48590480  0.65566411  0.58718842     0.14700
C966        C  0.48344638  0.70124993  0.62544532    -0.24200
H967        H  0.45632492  0.57284087  0.67762179     0.05000
H968        H  0.48390796  0.56210773  0.65015373     0.08200
H969        H  0.44384798  0.56646595  0.63989590     0.08200
H970        H  0.50460145  0.70958072  0.63624775     0.08200
H971        H  0.46342684  0.71401928  0.63351104     0.08200
H972        H  0.48576378  0.70515551  0.60082501     0.04900
C973        C  0.69922013  0.79013038  0.60586880    -0.20900
C974        C  0.67651457  0.78500988  0.62768338    -0.07400
C975        C  0.64772592  0.77367551  0.61867891     0.13400
C976        C  0.64324201  0.76538569  0.58863047    -0.20900
C977        C  0.66691529  0.76761996  0.56720615    -0.07400
C978        C  0.69489040  0.78145130  0.57572259     0.13400
C979        C  0.72089887  0.78563048  0.55387877    -0.24300
H980        H  0.72120604  0.79908329  0.61288094     0.14700
H981        H  0.62136227  0.75581089  0.58214472     0.14700
C982        C  0.62174067  0.76995972  0.64075974    -0.24200
H983        H  0.74129352  0.79590586  0.56471899     0.05000
H984        H  0.71366361  0.80066862  0.53532900     0.08200
H985        H  0.72780600  0.76373470  0.54476134     0.08200
H986        H  0.61718298  0.79156676  0.65184297     0.08200
H987        H  0.62754693  0.75299349  0.65804311     0.08200
H988        H  0.60030100  0.76250983  0.62953294     0.04900
C989        C  0.65556654  0.63949299  0.76124701    -0.20900
C990        C  0.68632979  0.64792664  0.76481427    -0.07400
C991        C  0.70927547  0.62606735  0.76230275     0.13400
C992        C  0.70114828  0.59717219  0.75284278    -0.20900
C993        C  0.67055076  0.58957145  0.74653532    -0.07400
C994        C  0.64735760  0.61030687  0.75328322     0.13400
C995        C  0.61383418  0.60220706  0.75299022    -0.24300
H996        H  0.63780912  0.65593932  0.76426656     0.14700
H997        H  0.71894905  0.58108042  0.74856295     0.14700
C998        C  0.74246668  0.63364417  0.76773234    -0.24200
H999        H  0.60372986  0.60718040  0.77532667     0.05000
H1000       H  0.60976982  0.57818857  0.74885885     0.08200
H1001       H  0.60182601  0.61557406  0.73560668     0.08200
H1002       H  0.74558010  0.64096483  0.79137035     0.08200
H1003       H  0.74994568  0.65178786  0.75221373     0.08200
H1004       H  0.75745535  0.61415848  0.76402337     0.04900
C1005       C  0.53535749  0.72879119  0.75628361    -0.20900
C1006       C  0.52494735  0.73139289  0.72651830    -0.07400
C1007       C  0.54349406  0.74579939  0.70469046     0.13400
C1008       C  0.57320305  0.75439482  0.71241571    -0.20900
C1009       C  0.58426027  0.75027291  0.74167096    -0.07400
C1010       C  0.56494059  0.73818555  0.76419745     0.13400
C1011       C  0.57596401  0.73364684  0.79603064    -0.24300
H1012       H  0.52092430  0.71793541  0.77300063     0.14700
H1013       H  0.58776556  0.76479429  0.69557043     0.14700
C1014       C  0.53251943  0.75318260  0.67340796    -0.24200
H1015       H  0.55821274  0.72273592  0.81033897     0.05000
H1016       H  0.58170654  0.75547146  0.80625685     0.08200
H1017       H  0.59655900  0.71932434  0.79611495     0.08200
H1018       H  0.53619486  0.77730554  0.66885138     0.08200
H1019       H  0.50771840  0.74873401  0.67049575     0.08200
H1020       H  0.54575170  0.74027630  0.65669302     0.04900
C1021       C  0.73405263  0.32090528  0.56691455    -0.20900
C1022       C  0.71700392  0.34710272  0.56253274    -0.07400
C1023       C  0.71038422  0.36486308  0.58803333     0.13400
C1024       C  0.71859560  0.35474165  0.61676973    -0.20900
C1025       C  0.73331612  0.32745431  0.62152145    -0.07400
C1026       C  0.74236233  0.31088153  0.59603464     0.13400
C1027       C  0.75973142  0.28223786  0.59926406    -0.24300
H1028       H  0.73994832  0.30755886  0.54756145     0.14700
H1029       H  0.71256717  0.36806130  0.63603325     0.14700
C1030       C  0.69481565  0.39471934  0.58572083    -0.24200
H1031       H  0.76453236  0.27206179  0.57704532     0.05000
H1032       H  0.74620910  0.26596143  0.61283388     0.08200
H1033       H  0.78203726  0.28661413  0.61044084     0.08200
H1034       H  0.67047870  0.39178032  0.57917051     0.08200
H1035       H  0.70698650  0.40918452  0.56915403     0.08200
H1036       H  0.69481720  0.40660513  0.60754285     0.04900
C1037       C  0.57456721  0.31139404  0.76329146    -0.20900
C1038       C  0.59774198  0.33311325  0.76066533    -0.07400
C1039       C  0.59030925  0.36197346  0.75019195     0.13400
C1040       C  0.56039476  0.36771542  0.74053517    -0.20900
C1041       C  0.53769895  0.34541095  0.74106670    -0.07400
C1042       C  0.54456386  0.31713968  0.75343549     0.13400
C1043       C  0.52104853  0.29239398  0.75427284    -0.24300
H1044       H  0.58047522  0.28921243  0.77099675     0.14700
H1045       H  0.55492242  0.38951348  0.73146173     0.14700
C1046       C  0.61393893  0.38669967  0.74879770    -0.24200
H1047       H  0.53079057  0.27133801  0.76319024     0.05000
H1048       H  0.51234954  0.28808732  0.73119807     0.08200
H1049       H  0.50172899  0.29867898  0.76908100     0.08200
H1050       H  0.63209161  0.38145836  0.73226045     0.08200
H1051       H  0.62439280  0.38977766  0.77136395     0.08200
H1052       H  0.60365587  0.40820577  0.74180980     0.04900
C1053       C  0.70058810  0.44091925  0.75943381    -0.20900
C1054       C  0.70485164  0.42203680  0.73467790    -0.07400
C1055       C  0.70133267  0.43360116  0.70526022     0.13400
C1056       C  0.69275773  0.46330670  0.70136270    -0.20900
C1057       C  0.68682357  0.48189818  0.72599315    -0.07400
C1058       C  0.69128845  0.47065261  0.75551372     0.13400
C1059       C  0.68496523  0.48919044  0.78292103    -0.24300
H1060       H  0.70346538  0.43202206  0.78200183     0.14700
H1061       H  0.68985256  0.47188072  0.67866948     0.14700
C1062       C  0.70682269  0.41494561  0.67773947    -0.24200
H1063       H  0.68846505  0.47636113  0.80409682     0.05000
H1064       H  0.66086618  0.49684815  0.78254918     0.08200
H1065       H  0.70071071  0.50872074  0.78336208     0.08200
H1066       H  0.68931789  0.39695033  0.67637579     0.08200
H1067       H  0.73007548  0.40518747  0.67869010     0.08200
H1068       H  0.70520494  0.42833931  0.65670895     0.04900
C1069       C  0.22555142  0.70986872  0.61068901    -0.20900
C1070       C  0.22674742  0.74013295  0.61804431    -0.07400
C1071       C  0.23610476  0.76114943  0.59605354     0.13400
C1072       C  0.24610026  0.75108056  0.56780495    -0.20900
C1073       C  0.24757350  0.72049465  0.56154344    -0.07400
C1074       C  0.23614196  0.69969122  0.58284620     0.13400
C1075       C  0.23535246  0.66675052  0.57648328    -0.24300
H1076       H  0.21765745  0.69401150  0.62743475     0.14700
H1077       H  0.25463254  0.76700155  0.55129980     0.14700
C1078       C  0.23725309  0.79392413  0.60300422    -0.24200
H1079       H  0.22333068  0.65407287  0.59456212     0.05000
H1080       H  0.25896665  0.65803280  0.57489321     0.08200
H1081       H  0.22302955  0.66259411  0.55503515     0.08200
H1082       H  0.25294407  0.79804930  0.62223542     0.08200
H1083       H  0.21397626  0.80171135  0.60890103     0.08200
H1084       H  0.24555155  0.80726585  0.58344418     0.04900
C1085       C  0.37889529  0.73694550  0.76972405    -0.20900
C1086       C  0.35539290  0.71710989  0.76177566    -0.07400
C1087       C  0.36268501  0.68980684  0.74807420     0.13400
C1088       C  0.39310092  0.68433085  0.74020269    -0.20900
C1089       C  0.41626866  0.70588912  0.74447814    -0.07400
C1090       C  0.40927691  0.73199953  0.76099534     0.13400
C1091       C  0.43276864  0.75575347  0.76815763    -0.24300
H1092       H  0.37303137  0.75775659  0.78045922     0.14700
H1093       H  0.39837328  0.66369699  0.72888116     0.14700
C1094       C  0.33849296  0.66664580  0.74099509    -0.24200
H1095       H  0.42277614  0.77429211  0.78124806     0.05000
H1096       H  0.44216875  0.76551582  0.74703023     0.08200
H1097       H  0.45143329  0.74609943  0.78197950     0.08200
H1098       H  0.32262821  0.67494958  0.72342240     0.08200
H1099       H  0.32537520  0.66095928  0.76169058     0.08200
H1100       H  0.34873162  0.64581557  0.73235322     0.04900
C1101       C  0.24637339  0.61846749  0.74609947    -0.20900
C1102       C  0.24348779  0.63954962  0.72284279    -0.07400
C1103       C  0.24718573  0.63059517  0.69266414     0.13400
C1104       C  0.25580967  0.60136724  0.68660677    -0.20900
C1105       C  0.26100892  0.58074401  0.70986961    -0.07400
C1106       C  0.25522156  0.58909028  0.74004786     0.13400
C1107       C  0.25979111  0.56789108  0.76607336    -0.24300
H1108       H  0.24307302  0.62539532  0.76920465     0.14700
H1109       H  0.25933556  0.59477097  0.66343018     0.14700
C1110       C  0.24149797  0.65151670  0.66666008    -0.24200
H1111       H  0.25530330  0.57869647  0.78804565     0.05000
H1112       H  0.28375615  0.55986498  0.76628713     0.08200
H1113       H  0.24374422  0.54869818  0.76410103     0.08200
H1114       H  0.25867350  0.66985442  0.66641099     0.08200
H1115       H  0.21810792  0.66076588  0.66864077     0.08200
H1116       H  0.24314376  0.63999330  0.64469316     0.04900
C1117       C  0.22983378  0.30231941  0.59621829    -0.20900
C1118       C  0.23396224  0.32362130  0.61889435    -0.07400
C1119       C  0.24422530  0.35256648  0.61080604     0.13400
C1120       C  0.25289202  0.35851008  0.58090446    -0.20900
C1121       C  0.25108631  0.33653292  0.55855458    -0.07400
C1122       C  0.23797797  0.30846162  0.56610123     0.13400
C1123       C  0.23377801  0.28438018  0.54303664    -0.24300
H1124       H  0.22162347  0.28024085  0.60235734     0.14700
H1125       H  0.26182056  0.38040870  0.57506731     0.14700
C1126       C  0.24566137  0.37744676  0.63346327    -0.24200
H1127       H  0.22420869  0.26360025  0.55314223     0.05000
H1128       H  0.25617509  0.27898649  0.53270800     0.08200
H1129       H  0.21749983  0.29196290  0.52545990     0.08200
H1130       H  0.26354814  0.37306677  0.65059555     0.08200
H1131       H  0.22308581  0.37963354  0.64470503     0.08200
H1132       H  0.25130883  0.39916489  0.62259244     0.04900
C1133       C  0.28866668  0.42175292  0.73587070    -0.20900
C1134       C  0.25788274  0.41277426  0.73467430    -0.07400
C1135       C  0.23500110  0.43401498  0.72845425     0.13400
C1136       C  0.24370526  0.46357903  0.72234829    -0.20900
C1137       C  0.27462257  0.47214504  0.72211764    -0.07400
C1138       C  0.29730019  0.45131613  0.73022822     0.13400
C1139       C  0.33071990  0.45953784  0.73315843    -0.24300
H1140       H  0.30613018  0.40555122  0.74125951     0.14700
H1141       H  0.22647480  0.47962861  0.71586707     0.14700
C1142       C  0.20169330  0.42529367  0.72623987    -0.24200
H1143       H  0.33924126  0.45237826  0.75560937     0.05000
H1144       H  0.33499696  0.48385353  0.73129811     0.08200
H1145       H  0.34401979  0.44812485  0.71542684     0.08200
H1146       H  0.19331278  0.41724862  0.74844983     0.08200
H1147       H  0.19872515  0.40745930  0.70925137     0.08200
H1148       H  0.18725820  0.44440648  0.71934687     0.04900
C1149       C  0.37075629  0.35581984  0.74776095    -0.20900
C1150       C  0.36641401  0.32691085  0.75945300    -0.07400
C1151       C  0.39212609  0.30851421  0.76375143     0.13400
C1152       C  0.42101395  0.31854769  0.75380236    -0.20900
C1153       C  0.42469122  0.34627811  0.73930314    -0.07400
C1154       C  0.39947838  0.36577123  0.73760334     0.13400
C1155       C  0.40249894  0.39705883  0.72528272    -0.24300
H1156       H  0.35110126  0.37016195  0.74502034     0.14700
H1157       H  0.44049406  0.30387363  0.75571373     0.14700
C1158       C  0.38899726  0.27763966  0.77690767    -0.24200
H1159       H  0.38093786  0.40964831  0.72798137     0.05000
H1160       H  0.40784922  0.39671862  0.70089252     0.08200
H1161       H  0.42081427  0.40923707  0.73756311     0.08200
H1162       H  0.37328977  0.26402580  0.76283579     0.08200
H1163       H  0.37983044  0.27894195  0.80017125     0.08200
H1164       H  0.41137172  0.26612090  0.77797826     0.04900
C1165       C  0.10597988  0.18401217  0.99354051    -0.20900
C1166       C  0.13216603  0.17656129  0.01035955    -0.07400
C1167       C  0.13163585  0.15027076  0.02815587     0.13400
C1168       C  0.10583861  0.13157064  0.02747040    -0.20900
C1169       C  0.08011744  0.13832469  0.00989046    -0.07400
C1170       C  0.07970172  0.16546795  0.99351151     0.13400
C1171       C  0.05218210  0.17450089  0.97528702    -0.24300
H1172       H  0.10616229  0.20435765  0.98025888     0.14700
H1173       H  0.10592485  0.11106727  0.04053048     0.14700
C1174       C  0.15857396  0.14084967  0.04703967    -0.24200
H1175       H  0.05612837  0.19596450  0.96325841     0.05000
H1176       H  0.03218335  0.17734363  0.99039066     0.08200
H1177       H  0.04682267  0.15721219  0.95827920     0.08200
H1178       H  0.16208511  0.15683815  0.06566146     0.08200
H1179       H  0.17948899  0.13961620  0.03290816     0.08200
H1180       H  0.15476953  0.11862598  0.05743158     0.04900
C1181       C  0.18716463  0.24439384  0.92916754    -0.20900
C1182       C  0.20823288  0.23025293  0.94810199    -0.07400
C1183       C  0.23793899  0.22421563  0.93701997     0.13400
C1184       C  0.24529814  0.23145012  0.90687381    -0.20900
C1185       C  0.22371946  0.24470358  0.88766567    -0.07400
C1186       C  0.19467415  0.25239486  0.89950947     0.13400
C1187       C  0.17108826  0.26970148  0.88194230    -0.24300
H1188       H  0.16456974  0.24953708  0.93772151     0.14700
H1189       H  0.26752080  0.22561786  0.89792434     0.14700
C1190       C  0.26131834  0.20867262  0.95629748    -0.24200
H1191       H  0.16432278  0.28959613  0.89499346     0.05000
H1192       H  0.15046764  0.25553415  0.87832447     0.08200
H1193       H  0.17951776  0.27806411  0.85991703     0.08200
H1194       H  0.25197715  0.18692651  0.96427797     0.08200
H1195       H  0.26727538  0.22270967  0.97594966     0.08200
H1196       H  0.28275699  0.20439168  0.94366047     0.04900
C1197       C  0.72150881  0.76518870  0.41932064    -0.20900
C1198       C  0.70035946  0.76419520  0.39546721    -0.07400
C1199       C  0.66871432  0.76121472  0.40215007     0.13400
C1200       C  0.65943116  0.75793020  0.43218222    -0.20900
C1201       C  0.68066529  0.75718056  0.45584664    -0.07400
C1202       C  0.71208786  0.76131277  0.44942479     0.13400
C1203       C  0.73582956  0.76016503  0.47391424    -0.24300
H1204       H  0.74565639  0.76791407  0.41428509     0.14700
H1205       H  0.63530859  0.75482714  0.43722614     0.14700
C1206       C  0.64436953  0.76174547  0.37799406    -0.24200
H1207       H  0.75940208  0.76238555  0.46473598     0.05000
H1208       H  0.73415058  0.73861241  0.48624495     0.08200
H1209       H  0.73219282  0.77877947  0.48969624     0.08200
H1210       H  0.64632622  0.74189558  0.36340770     0.08200
H1211       H  0.64671893  0.78234388  0.36417978     0.08200
H1212       H  0.62092712  0.76134817  0.38771437     0.04900
C1213       C  0.58310721  0.74892691  0.28352458    -0.20900
C1214       C  0.59576888  0.77627066  0.29276520    -0.07400
C1215       C  0.57790319  0.79564843  0.31040325     0.13400
C1216       C  0.54839132  0.78646603  0.31951070    -0.20900
C1217       C  0.53680372  0.75828873  0.31178250    -0.07400
C1218       C  0.55395547  0.73964756  0.29290782     0.13400
C1219       C  0.54159873  0.70989801  0.28269580    -0.24300
H1220       H  0.59661398  0.73422126  0.26965532     0.14700
H1221       H  0.53490382  0.80068419  0.33389716     0.14700
C1222       C  0.59041362  0.82508281  0.32109369    -0.24200
H1223       H  0.55753113  0.69878994  0.26694078     0.05000
H1224       H  0.51943064  0.71303921  0.27090631     0.08200
H1225       H  0.53814330  0.69483739  0.30233383     0.08200
H1226       H  0.59578376  0.83964092  0.30146422     0.08200
H1227       H  0.61149608  0.82146248  0.33454105     0.08200
H1228       H  0.57369458  0.83689914  0.33546590     0.04900
C1229       C  0.74615910  0.63809003  0.32044915    -0.20900
C1230       C  0.73934862  0.64890001  0.29159443    -0.07400
C1231       C  0.72537361  0.62975674  0.27043272     0.13400
C1232       C  0.71657365  0.60078185  0.27930229    -0.20900
C1233       C  0.72099156  0.59084722  0.30899041    -0.07400
C1234       C  0.73722228  0.60919257  0.32937796     0.13400
C1235       C  0.74482190  0.59844811  0.36064751    -0.24300
H1236       H  0.75701999  0.65284959  0.33653416     0.14700
H1237       H  0.70428542  0.58662999  0.26364486     0.14700
C1238       C  0.71816764  0.64054616  0.23904604    -0.24200
H1239       H  0.75873705  0.61509005  0.37315867     0.05000
H1240       H  0.75810747  0.57753291  0.35933007     0.08200
H1241       H  0.72355844  0.59424396  0.37357508     0.08200
H1242       H  0.73955685  0.64810308  0.22772062     0.08200
H1243       H  0.70192376  0.65938801  0.24005346     0.08200
H1244       H  0.70759239  0.62270074  0.22519802     0.04900
C1245       C  0.71592764  0.31223785  0.44233640    -0.20900
C1246       C  0.72307221  0.34149569  0.45080795    -0.07400
C1247       C  0.73881913  0.36042741  0.43038907     0.13400
C1248       C  0.74530468  0.35024590  0.40121097    -0.20900
C1249       C  0.73641220  0.32159681  0.39213042    -0.07400
C1250       C  0.72228143  0.30210021  0.41312977     0.13400
C1251       C  0.71268429  0.27107484  0.40429138    -0.24300
H1252       H  0.70368659  0.29786985  0.45803527     0.14700
H1253       H  0.75618640  0.36510173  0.38502078     0.14700
C1254       C  0.74836148  0.39146158  0.43925147    -0.24200
H1255       H  0.70198240  0.25874549  0.42340649     0.05000
H1256       H  0.73301229  0.25845859  0.39677065     0.08200
H1257       H  0.69579386  0.27212053  0.38564129     0.08200
H1258       H  0.76365262  0.39037938  0.45919401     0.08200
H1259       H  0.72793191  0.40478859  0.44485477     0.08200
H1260       H  0.76091072  0.40310335  0.42079700     0.04900
C1261       C  0.68665243  0.43009874  0.29338765    -0.20900
C1262       C  0.71691053  0.42291484  0.28607144    -0.07400
C1263       C  0.73950489  0.44582126  0.28651566     0.13400
C1264       C  0.73129865  0.47476450  0.29548006    -0.20900
C1265       C  0.70112475  0.48160169  0.30388238    -0.07400
C1266       C  0.67833107  0.45886488  0.30195983     0.13400
C1267       C  0.64486330  0.46436064  0.30813118    -0.24300
H1268       H  0.66909741  0.41290275  0.29232299     0.14700
H1269       H  0.74878977  0.49199119  0.29664290     0.14700
C1270       C  0.77241918  0.43993217  0.27854697    -0.24200
H1271       H  0.63028194  0.44493088  0.30197886     0.05000
H1272       H  0.63688096  0.48371861  0.29466757     0.08200
H1273       H  0.64119940  0.46822414  0.33248953     0.08200
H1274       H  0.77413209  0.43334264  0.25457551     0.08200
H1275       H  0.78157135  0.42196944  0.29320705     0.08200
H1276       H  0.78708490  0.46003187  0.28157625     0.04900
C1277       C  0.59587706  0.36385388  0.25909649    -0.20900
C1278       C  0.60104498  0.33441416  0.25030642    -0.07400
C1279       C  0.57598062  0.31448105  0.24759026     0.13400
C1280       C  0.54661752  0.32390163  0.25607028    -0.20900
C1281       C  0.54194081  0.35269442  0.26721723    -0.07400
C1282       C  0.56661543  0.37338225  0.26728681     0.13400
C1283       C  0.56235137  0.40559748  0.27570068    -0.24300
H1284       H  0.61513711  0.37918650  0.26066392     0.14700
H1285       H  0.52758253  0.30825010  0.25551800     0.14700
C1286       C  0.58040291  0.28284702  0.23750717    -0.24200
H1287       H  0.58330817  0.41908781  0.27115772     0.05000
H1288       H  0.55723082  0.40758698  0.30004811     0.08200
H1289       H  0.54340689  0.41528531  0.26225716     0.08200
H1290       H  0.59679535  0.27139505  0.25268152     0.08200
H1291       H  0.58940707  0.28276668  0.21414090     0.08200
H1292       H  0.55855533  0.26999604  0.23776312     0.04900
C1293       C  0.28897425  0.73081296  0.43152385    -0.20900
C1294       C  0.26427540  0.72560210  0.45108856    -0.07400
C1295       C  0.23414580  0.72953122  0.44018940     0.13400
C1296       C  0.22971705  0.73845086  0.41001494    -0.20900
C1297       C  0.25457789  0.74266877  0.39023563    -0.07400
C1298       C  0.28460798  0.73872352  0.40133755     0.13400
C1299       C  0.31235109  0.74401116  0.38195844    -0.24300
H1300       H  0.31207483  0.72859385  0.43990382     0.14700
H1301       H  0.20664717  0.74135222  0.40157923     0.14700
C1302       C  0.20663004  0.72313465  0.45968910    -0.24200
H1303       H  0.33393842  0.74189460  0.39494914     0.05000
H1304       H  0.31118508  0.76691334  0.37261661     0.08200
H1305       H  0.31320666  0.72750246  0.36351160     0.08200
H1306       H  0.20618694  0.73879056  0.47890045     0.08200
H1307       H  0.20749655  0.69986355  0.46826948     0.08200
H1308       H  0.18490567  0.72578430  0.44699975     0.04900
C1309       C  0.23474664  0.63780092  0.32075061    -0.20900
C1310       C  0.23066574  0.64398908  0.29010080    -0.07400
C1311       C  0.23352767  0.62094044  0.26885728     0.13400
C1312       C  0.24259267  0.59253280  0.27872786    -0.20900
C1313       C  0.24991513  0.58727001  0.30908446    -0.07400
C1314       C  0.24466065  0.60984059  0.33056459     0.13400
C1315       C  0.25030704  0.60506793  0.36377080    -0.24300
H1316       H  0.23218065  0.65562481  0.33690173     0.14700
H1317       H  0.24649069  0.57517340  0.26235841     0.14700
C1318       C  0.22951742  0.62689589  0.23567996    -0.24200
H1319       H  0.24218632  0.62416708  0.37729105     0.05000
H1320       H  0.27513452  0.60284692  0.36827082     0.08200
H1321       H  0.23793579  0.58477232  0.37167773     0.08200
H1322       H  0.24603846  0.64435754  0.22813871     0.08200
H1323       H  0.20584821  0.63453540  0.23120387     0.08200
H1324       H  0.23353708  0.60660702  0.22211740     0.04900
C1325       C  0.37180987  0.77689235  0.33134380    -0.20900
C1326       C  0.36682248  0.78424810  0.30113081    -0.07400
C1327       C  0.39176384  0.78447392  0.28092425     0.13400
C1328       C  0.42059938  0.77489752  0.29115218    -0.20900
C1329       C  0.42473496  0.76465283  0.32092522    -0.07400
C1330       C  0.40021414  0.76689549  0.34157727     0.13400
C1331       C  0.40358153  0.75898763  0.37447366    -0.24300
H1332       H  0.35287473  0.77784794  0.34680538     0.14700
H1333       H  0.43951640  0.77388887  0.27541012     0.14700
C1334       C  0.38767018  0.79333167  0.24841267    -0.24200
H1335       H  0.38314360  0.76545343  0.38766623     0.05000
H1336       H  0.42361910  0.77095006  0.38410469     0.08200
H1337       H  0.40635651  0.73461250  0.37735225     0.08200
H1338       H  0.37964279  0.81669050  0.24701919     0.08200
H1339       H  0.37056672  0.77844933  0.23754985     0.08200
H1340       H  0.40945791  0.79185296  0.23562962     0.04900
C1341       C  0.11446784  0.04840426  0.09701945    -0.20900
C1342       C  0.08839129  0.03043332  0.10171454    -0.07400
C1343       C  0.08779704  0.01039473  0.12652040     0.13400
C1344       C  0.11289293  0.00957007  0.14633644    -0.20900
C1345       C  0.13842557  0.02833069  0.14214596    -0.07400
C1346       C  0.13934869  0.04776115  0.11696364     0.13400
C1347       C  0.16687740  0.06726692  0.11047198    -0.24300
H1348       H  0.11523275  0.06339750  0.07778337     0.14700
H1349       H  0.11234188  0.99456322  0.16555198     0.14700
C1350       C  0.06138888  0.98909503  0.13173160    -0.24200
H1351       H  0.16506273  0.07839937  0.08821722     0.05000
H1352       H  0.18791622  0.05357780  0.11022919     0.08200
H1353       H  0.16904060  0.08488121  0.12775884     0.08200
H1354       H  0.05759827  0.97535324  0.11134843     0.08200
H1355       H  0.04029766  0.00159656  0.13704021     0.08200
H1356       H  0.06580071  0.97374325  0.15093042     0.04900
C1357       C  0.19578481  0.92494754  0.23180564    -0.20900
C1358       C  0.22566661  0.91516266  0.22590261    -0.07400
C1359       C  0.24733418  0.93560477  0.21389024     0.13400
C1360       C  0.23781391  0.96457989  0.20596214    -0.20900
C1361       C  0.20720530  0.97323103  0.20960699    -0.07400
C1362       C  0.18622257  0.95350634  0.22361323     0.13400
C1363       C  0.15359250  0.96237532  0.22980678    -0.24300
H1364       H  0.17934022  0.90963659  0.24189758     0.14700
H1365       H  0.25391146  0.98003980  0.19559514     0.14700
C1366       C  0.27989517  0.92661424  0.20809575    -0.24200
H1367       H  0.14095522  0.94487319  0.24266340     0.05000
H1368       H  0.14118081  0.96602348  0.20833664     0.08200
H1369       H  0.15332147  0.98313645  0.24324290     0.08200
H1370       H  0.28033508  0.90742453  0.19246714     0.08200
H1371       H  0.29102901  0.92029753  0.22965310     0.08200
H1372       H  0.29347345  0.94509783  0.19783969     0.04900
C1373       C  0.24019208  0.29522135  0.40828819    -0.20900
C1374       C  0.23423321  0.31802268  0.38741265    -0.07400
C1375       C  0.23612096  0.34800882  0.39659467     0.13400
C1376       C  0.24516694  0.35461656  0.42612113    -0.20900
C1377       C  0.25254219  0.33194432  0.44668913    -0.07400
C1378       C  0.24966783  0.30185342  0.43782032     0.13400
C1379       C  0.25854715  0.27685546  0.45869971    -0.24300
H1380       H  0.23929180  0.27226116  0.40091087     0.14700
H1381       H  0.24750127  0.37767209  0.43292992     0.14700
C1382       C  0.22927071  0.37304930  0.37493854    -0.24200
H1383       H  0.25639606  0.25480656  0.44766852     0.05000
H1384       H  0.24334651  0.27671919  0.47864128     0.08200
H1385       H  0.28269049  0.27982910  0.46600626     0.08200
H1386       H  0.20551776  0.37062893  0.36633959     0.08200
H1387       H  0.24540613  0.37241698  0.35573890     0.08200
H1388       H  0.23156001  0.39519221  0.38574922     0.04900
C1389       C  0.39275627  0.31676940  0.24092324    -0.20900
C1390       C  0.36828212  0.33607170  0.24632432    -0.07400
C1391       C  0.37448501  0.36463875  0.25830841     0.13400
C1392       C  0.40435212  0.37193140  0.26735097    -0.20900
C1393       C  0.42842078  0.35161476  0.26465769    -0.07400
C1394       C  0.42282587  0.32415102  0.24992492     0.13400
C1395       C  0.44784028  0.30176068  0.24520697    -0.24300
H1396       H  0.38800015  0.29499057  0.23152878     0.14700
H1397       H  0.40874750  0.39343026  0.27753345     0.14700
C1398       C  0.34969323  0.38758626  0.26178368    -0.24200
H1399       H  0.43902805  0.28110342  0.23450582     0.05000
H1400       H  0.45817717  0.29550763  0.26717218     0.08200
H1401       H  0.46571371  0.31132811  0.23013838     0.08200
H1402       H  0.33267569  0.38032918  0.27889443     0.08200
H1403       H  0.33805747  0.39115784  0.23984435     0.08200
H1404       H  0.35916103  0.40937383  0.26922702     0.04900
C1405       C  0.26658574  0.42426207  0.31159837    -0.20900
C1406       C  0.25360195  0.41970410  0.28302388    -0.07400
C1407       C  0.24575194  0.44507213  0.26541720     0.13400
C1408       C  0.25227410  0.47381333  0.27646230    -0.20900
C1409       C  0.26626927  0.47798685  0.30459727    -0.07400
C1410       C  0.27246244  0.45273347  0.32285043     0.13400
C1411       C  0.28437560  0.45522072  0.35471365    -0.24300
H1412       H  0.27244829  0.40528702  0.32549802     0.14700
H1413       H  0.24718567  0.49314395  0.26265352     0.14700
C1414       C  0.23154004  0.44236813  0.23464559    -0.24200
H1415       H  0.28397837  0.43338627  0.36664179     0.05000
H1416       H  0.26984056  0.47066840  0.36776165     0.08200
H1417       H  0.30849747  0.46313088  0.35473686     0.08200
H1418       H  0.24667287  0.42921216  0.21981374     0.08200
H1419       H  0.22821186  0.46447800  0.22381580     0.08200
H1420       H  0.20868474  0.43150036  0.23643161     0.04900
C1421       C  0.22041409  0.20056464  0.08180740    -0.20900
C1422       C  0.22103044  0.22282667  0.05942098    -0.07400
C1423       C  0.23419495  0.25090032  0.06633206     0.13400
C1424       C  0.24360852  0.25674911  0.09611097    -0.20900
C1425       C  0.23978364  0.23538623  0.11910751    -0.07400
C1426       C  0.22930659  0.20646596  0.11152360     0.13400
C1427       C  0.22690078  0.18177923  0.13471455    -0.24300
H1428       H  0.21147454  0.17868440  0.07633821     0.14700
H1429       H  0.25181109  0.27883607  0.10190776     0.14700
C1430       C  0.23655000  0.27537327  0.04307490    -0.24200
H1431       H  0.22074584  0.16012716  0.12426076     0.05000
H1432       H  0.20887848  0.18671243  0.15148774     0.08200
H1433       H  0.24921563  0.17908220  0.14633851     0.08200
H1434       H  0.21346880  0.28061366  0.03412990     0.08200
H1435       H  0.25163187  0.26826322  0.02438694     0.08200
H1436       H  0.24645793  0.29611843  0.05264842     0.04900
C1437       C  0.23893506  0.12385799  0.22384587    -0.20900
C1438       C  0.21422759  0.14353783  0.22711835    -0.07400
C1439       C  0.18404304  0.13232184  0.22444348     0.13400
C1440       C  0.17933682  0.10257825  0.21657753    -0.20900
C1441       C  0.20385410  0.08345633  0.21107593    -0.07400
C1442       C  0.23409865  0.09383699  0.21578097     0.13400
C1443       C  0.26116208  0.07384026  0.21122577    -0.24300
H1444       H  0.26210521  0.13224770  0.22659911     0.14700
H1445       H  0.15609668  0.09430235  0.21390007     0.14700
C1446       C  0.15650613  0.15130272  0.23036363    -0.24200
H1447       H  0.28315382  0.08584641  0.21505155     0.05000
H1448       H  0.26118672  0.06523604  0.18784882     0.08200
H1449       H  0.25996427  0.05485248  0.22733655     0.08200
H1450       H  0.15463051  0.16899698  0.21292925     0.08200
H1451       H  0.15846653  0.16141617  0.25303752     0.08200
H1452       H  0.13494356  0.13804281  0.22976134     0.04900
C1453       C  0.95315539  0.13364174  0.12400183    -0.20900
C1454       C  0.98111907  0.12710177  0.11039638    -0.07400
C1455       C  0.00827689  0.13976001  0.12186465     0.13400
C1456       C  0.00684241  0.15822916  0.14725382    -0.20900
C1457       C  0.97888510  0.16414651  0.16201723    -0.07400
C1458       C  0.95150355  0.15162543  0.14976059     0.13400
C1459       C  0.92034296  0.15621578  0.16352047    -0.24300
H1460       H  0.93240934  0.12420280  0.11454920     0.14700
H1461       H  0.02797882  0.16776015  0.15573151     0.14700
C1462       C  0.03880356  0.13353659  0.10746594    -0.24200
H1463       H  0.90202871  0.14431625  0.15092267     0.05000
H1464       H  0.91457903  0.18023930  0.16319354     0.08200
H1465       H  0.91997527  0.14739834  0.18692728     0.08200
H1466       H  0.03859681  0.14110842  0.08360769     0.08200
H1467       H  0.04342087  0.10926244  0.10829238     0.08200
H1468       H  0.05784660  0.14526480  0.11915199     0.04900
C1469       C  0.90215886  0.19590270  0.24513139    -0.20900
C1470       C  0.92603578  0.21704631  0.24428031    -0.07400
C1471       C  0.92052690  0.24624851  0.25480958     0.13400
C1472       C  0.89073535  0.25397829  0.26380295    -0.20900
C1473       C  0.86648519  0.23336035  0.26212634    -0.07400
C1474       C  0.87250777  0.20367678  0.25390532     0.13400
C1475       C  0.84755366  0.18023908  0.25395316    -0.24300
H1476       H  0.90649734  0.17333213  0.23786437     0.14700
H1477       H  0.88590577  0.27675135  0.27009088     0.14700
C1478       C  0.94522982  0.26989303  0.25462926    -0.24200
H1479       H  0.85645794  0.15796447  0.24792503     0.05000
H1480       H  0.82963792  0.18604039  0.23734700     0.08200
H1481       H  0.83713122  0.17859124  0.27671489     0.08200
H1482       H  0.95439329  0.27287125  0.23146889     0.08200
H1483       H  0.96400163  0.26338458  0.27009433     0.08200
H1484       H  0.93645638  0.29173016  0.26224750     0.04900
C1485       C  0.04458697  0.24513165  0.24992039    -0.20900
C1486       C  0.03949700  0.21594534  0.23960262    -0.07400
C1487       C  0.06418820  0.19574276  0.23948806     0.13400
C1488       C  0.09351583  0.20585686  0.24728888    -0.20900
C1489       C  0.09920495  0.23552699  0.25517176    -0.07400
C1490       C  0.07425149  0.25527661  0.25748314     0.13400
C1491       C  0.07898839  0.28735774  0.26614459    -0.24300
H1492       H  0.02560680  0.26050422  0.25050515     0.14700
H1493       H  0.11248128  0.19066257  0.24627343     0.14700
C1494       C  0.05999107  0.16337674  0.23136021    -0.24200
H1495       H  0.05712631  0.29981075  0.26604938     0.05000
H1496       H  0.09486568  0.29843648  0.24997089     0.08200
H1497       H  0.08874387  0.28859634  0.28917808     0.08200
H1498       H  0.05488892  0.16114759  0.20703010     0.08200
H1499       H  0.04113711  0.15335450  0.24491910     0.08200
H1500       H  0.08096063  0.15033281  0.23591664     0.04900
C1501       C  0.73929473  0.95969777  0.18934615    -0.20900
C1502       C  0.75165503  0.97805813  0.21181396    -0.07400
C1503       C  0.74977810  0.96862774  0.24224584     0.13400
C1504       C  0.73892802  0.93962073  0.24897922    -0.20900
C1505       C  0.72892188  0.92048535  0.22604875    -0.07400
C1506       C  0.72704666  0.93148412  0.19631712     0.13400
C1507       C  0.71218680  0.91323777  0.17201740    -0.24300
H1508       H  0.73987899  0.96722325  0.16609721     0.14700
H1509       H  0.73995101  0.93126186  0.27190993     0.14700
C1510       C  0.76079613  0.98832723  0.26736739    -0.24200
H1511       H  0.71360364  0.92443239  0.14966839     0.05000
H1512       H  0.68766116  0.90958563  0.17763090     0.08200
H1513       H  0.72343984  0.89135738  0.17055211     0.08200
H1514       H  0.74723635  0.00912075  0.26759057     0.08200
H1515       H  0.78537088  0.99397898  0.26411566     0.08200
H1516       H  0.75812650  0.97729061  0.28969151     0.04900
C1517       C  0.78317345  0.14163444  0.21065753    -0.20900
C1518       C  0.75767514  0.14689420  0.22915391    -0.07400
C1519       C  0.74050562  0.12181164  0.23955738     0.13400
C1520       C  0.74882934  0.09289108  0.23053046    -0.20900
C1521       C  0.77407719  0.08775201  0.21161390    -0.07400
C1522       C  0.79187268  0.11292548  0.20202685     0.13400
C1523       C  0.82035882  0.11064177  0.18281716    -0.24300
H1524       H  0.79670060  0.16034014  0.20251976     0.14700
H1525       H  0.73519072  0.07408494  0.23828233     0.14700
C1526       C  0.71313033  0.12491117  0.25989729    -0.24200
H1527       H  0.83152219  0.13264633  0.17879245     0.05000
H1528       H  0.81452569  0.10154048  0.16034116     0.08200
H1529       H  0.83751025  0.09650362  0.19436151     0.08200
H1530       H  0.69545358  0.13867092  0.24865241     0.08200
H1531       H  0.72022193  0.13525096  0.28145939     0.08200
H1532       H  0.70245082  0.10300616  0.26542767     0.04900
C1533       C  0.86212281  0.03768057  0.15573242    -0.20900
C1534       C  0.83585359  0.02016387  0.15077251    -0.07400
C1535       C  0.83421502  0.00224744  0.12473628     0.13400
C1536       C  0.85840081  0.00334518  0.10383520    -0.20900
C1537       C  0.88414729  0.02181031  0.10830384    -0.07400
C1538       C  0.88621866  0.03882408  0.13495976     0.13400
C1539       C  0.91281242  0.05958073  0.14101825    -0.24300
H1540       H  0.86353808  0.05113302  0.17585938     0.14700
H1541       H  0.85695801  0.99009812  0.08355661     0.14700
C1542       C  0.80653538  0.98316154  0.11801433    -0.24200
H1543       H  0.90930807  0.07292892  0.16169005     0.05000
H1544       H  0.91558055  0.07527756  0.12182301     0.08200
H1545       H  0.93412228  0.04666719  0.14416381     0.08200
H1546       H  0.78579510  0.99724166  0.11691393     0.08200
H1547       H  0.80358977  0.96589567  0.13580191     0.08200
H1548       H  0.80878642  0.97152419  0.09614025     0.04900
C1549       C  0.04548900  0.78029867  0.21039171    -0.20900
C1550       C  0.04122003  0.79108013  0.18091806    -0.07400
C1551       C  0.06588852  0.78976742  0.16023229     0.13400
C1552       C  0.09469515  0.78040341  0.17031014    -0.20900
C1553       C  0.09951445  0.77199365  0.20036491    -0.07400
C1554       C  0.07442302  0.77089569  0.22041386     0.13400
C1555       C  0.07853260  0.76171983  0.25283509    -0.24300
H1556       H  0.02657517  0.78092886  0.22616964     0.14700
H1557       H  0.11401580  0.78098685  0.15496620     0.14700
C1558       C  0.06220760  0.79813916  0.12751197    -0.24200
H1559       H  0.05675907  0.76301738  0.26565462     0.05000
H1560       H  0.09557971  0.77655295  0.26386547     0.08200
H1561       H  0.08659294  0.73836882  0.25396976     0.08200
H1562       H  0.05794714  0.82229279  0.12519355     0.08200
H1563       H  0.04293850  0.78526960  0.11755140     0.08200
H1564       H  0.08315895  0.79327714  0.11430728     0.04900
C1565       C  0.90278029  0.80121153  0.16551874    -0.20900
C1566       C  0.92749328  0.79584904  0.18501212    -0.07400
C1567       C  0.92168784  0.78203586  0.21325601     0.13400
C1568       C  0.89121546  0.77582628  0.22188222    -0.20900
C1569       C  0.86647308  0.78363939  0.20332013    -0.07400
C1570       C  0.87244448  0.79552312  0.17427339     0.13400
C1571       C  0.84702857  0.80235736  0.15228881    -0.24300
H1572       H  0.90716687  0.81104292  0.14355109     0.14700
H1573       H  0.88658708  0.76648755  0.24400968     0.14700
C1574       C  0.94710195  0.77550642  0.23519231    -0.24200
H1575       H  0.85611155  0.80946468  0.12997226     0.05000
H1576       H  0.83270181  0.82076368  0.16073561     0.08200
H1577       H  0.83256879  0.78219717  0.14886146     0.08200
H1578       H  0.95970039  0.79637990  0.24062319     0.08200
H1579       H  0.96308729  0.75916187  0.22533590     0.08200
H1580       H  0.93821146  0.76586940  0.25661030     0.04900
C1581       C  0.01022336  0.87956926  0.11353611    -0.20900
C1582       C  0.98681335  0.87557283  0.13489749    -0.07400
C1583       C  0.96517419  0.89869379  0.13878942     0.13400
C1584       C  0.96741452  0.92466444  0.12088285    -0.20900
C1585       C  0.99014733  0.92786046  0.09874521    -0.07400
C1586       C  0.01206262  0.90513724  0.09531709     0.13400
C1587       C  0.03775867  0.90776046  0.07267541    -0.24300
H1588       H  0.02678177  0.86211449  0.11031432     0.14700
H1589       H  0.95057810  0.94207951  0.12333115     0.14700
C1590       C  0.93981891  0.89650936  0.16177770    -0.24200
H1591       H  0.05396908  0.88892430  0.07459886     0.05000
H1592       H  0.05086610  0.92871752  0.07639171     0.08200
H1593       H  0.02852810  0.90756111  0.04942083     0.08200
H1594       H  0.94959151  0.89216252  0.18444864     0.08200
H1595       H  0.92354398  0.87841149  0.15569563     0.08200
H1596       H  0.92648445  0.91741910  0.16295012     0.04900
C1597       C  0.19375276  0.96220397  0.76482608    -0.20900
C1598       C  0.19131352  0.97112939  0.79486884    -0.07400
C1599       C  0.19939018  0.95120953  0.81833474     0.13400
C1600       C  0.20815879  0.92223890  0.81110745    -0.20900
C1601       C  0.20927758  0.91288571  0.78112495    -0.07400
C1602       C  0.20245660  0.93316505  0.75761684     0.13400
C1603       C  0.20261810  0.92388251  0.72507311    -0.24300
H1604       H  0.18739826  0.97756582  0.74699708     0.14700
H1605       H  0.21371330  0.90660380  0.82897153     0.14700
C1606       C  0.19924079  0.96038374  0.85096776    -0.24200
H1607       H  0.19522580  0.94221365  0.70988396     0.05000
H1608       H  0.18671559  0.90472908  0.72183737     0.08200
H1609       H  0.22609617  0.91752214  0.71830525     0.08200
H1610       H  0.17547120  0.96380332  0.85889974     0.08200
H1611       H  0.21281328  0.98121309  0.85378426     0.08200
H1612       H  0.20949415  0.94308788  0.86567208     0.04900
C1613       C  0.21493291  0.08455842  0.77486038    -0.20900
C1614       C  0.18328273  0.07938108  0.77731292    -0.07400
C1615       C  0.16265943  0.10235800  0.76977809     0.13400
C1616       C  0.17422586  0.13066660  0.76285946    -0.20900
C1617       C  0.20576223  0.13654032  0.76309929    -0.07400
C1618       C  0.22650078  0.11304316  0.76791245     0.13400
C1619       C  0.26060687  0.11825507  0.76773917    -0.24300
H1620       H  0.23067007  0.06679664  0.78034022     0.14700
H1621       H  0.15847630  0.14867817  0.75823818     0.14700
C1622       C  0.12846488  0.09739469  0.76905802    -0.24200
H1623       H  0.27332748  0.09757647  0.77309367     0.05000
H1624       H  0.26678220  0.13519575  0.78484171     0.08200
H1625       H  0.26806491  0.12607216  0.74511691     0.08200
H1626       H  0.11938829  0.09437724  0.79218822     0.08200
H1627       H  0.12288984  0.07754066  0.75526336     0.08200
H1628       H  0.11650394  0.11672592  0.75893607     0.04900
C1629       C  0.07064131  0.04176891  0.87317241    -0.20900
C1630       C  0.08078474  0.03540132  0.90260625    -0.07400
C1631       C  0.11113756  0.02506538  0.90692876     0.13400
C1632       C  0.13039530  0.02257715  0.88190496    -0.20900
C1633       C  0.12022884  0.02997322  0.85297185    -0.07400
C1634       C  0.08991236  0.03922696  0.84834600     0.13400
C1635       C  0.07671715  0.04562407  0.81760806    -0.24300
H1636       H  0.04723729  0.04844635  0.86916121     0.14700
H1637       H  0.15374365  0.01508253  0.88491197     0.14700
C1638       C  0.12344908  0.01566697  0.93727358    -0.24200
H1639       H  0.05672082  0.03070280  0.81364857     0.05000
H1640       H  0.09318871  0.04200212  0.79906475     0.08200
H1641       H  0.06896534  0.06909654  0.81653396     0.08200
H1642       H  0.10873620  0.99777716  0.94707215     0.08200
H1643       H  0.12444008  0.03504801  0.95262365     0.08200
H1644       H  0.14703917  0.00677033  0.93562349     0.04900
C1645       C  0.90208238  0.86059804  0.77583189    -0.20900
C1646       C  0.92471941  0.83932122  0.78153848    -0.07400
C1647       C  0.91665396  0.80877922  0.78226332     0.13400
C1648       C  0.88594093  0.80036104  0.77800432    -0.20900
C1649       C  0.86322126  0.82176146  0.77328858    -0.07400
C1650       C  0.87141977  0.85222923  0.77159417     0.13400
C1651       C  0.84808919  0.87591707  0.76478268    -0.24300
H1652       H  0.90841031  0.88400522  0.77522068     0.14700
H1653       H  0.87946321  0.77700283  0.77907995     0.14700
C1654       C  0.93999563  0.78510717  0.78844229    -0.24200
H1655       H  0.85885571  0.89834646  0.76265382     0.05000
H1656       H  0.83091478  0.87691937  0.78314025     0.08200
H1657       H  0.83635994  0.87085645  0.74320503     0.08200
H1658       H  0.95205180  0.78969188  0.80994877     0.08200
H1659       H  0.95659954  0.78473377  0.76966403     0.08200
H1660       H  0.92932409  0.76260199  0.79011167     0.04900
C1661       C  0.06169294  0.86728364  0.76820857    -0.20900
C1662       C  0.03760472  0.84625731  0.76802787    -0.07400
C1663       C  0.04278320  0.81802880  0.75472503     0.13400
C1664       C  0.07238354  0.81078313  0.74492705    -0.20900
C1665       C  0.09682962  0.83080876  0.74830559    -0.07400
C1666       C  0.09121318  0.85989606  0.75864420     0.13400
C1667       C  0.11645008  0.88306767  0.76000736    -0.24300
H1668       H  0.05775151  0.88935559  0.77705753     0.14700
H1669       H  0.07696471  0.78854352  0.73679113     0.14700
C1670       C  0.01813935  0.79455431  0.75255721    -0.24200
H1671       H  0.10767894  0.90506837  0.76711842     0.05000
H1672       H  0.12700435  0.88583800  0.73740007     0.08200
H1673       H  0.13429603  0.87639941  0.77640870     0.08200
H1674       H  0.99923674  0.80272810  0.73809294     0.08200
H1675       H  0.00965090  0.78896411  0.77546835     0.08200
H1676       H  0.02668792  0.77369457  0.74235153     0.04900
C1677       C  0.00621808  0.89859618  0.87109753    -0.20900
C1678       C  0.98526197  0.90296358  0.84757435    -0.07400
C1679       C  0.96492868  0.92724435  0.84895497     0.13400
C1680       C  0.96537096  0.94590073  0.87420943    -0.20900
C1681       C  0.98543645  0.94092020  0.89842818    -0.07400
C1682       C  0.00640277  0.91709474  0.89660807     0.13400
C1683       C  0.02964388  0.91159447  0.92095829    -0.24300
H1684       H  0.02208909  0.88022782  0.86978953     0.14700
H1685       H  0.94965315  0.96440739  0.87517269     0.14700
C1686       C  0.94344174  0.93426557  0.82335095    -0.24200
H1687       H  0.04533225  0.89320012  0.91506763     0.05000
H1688       H  0.01790695  0.90531445  0.94226063     0.08200
H1689       H  0.04368531  0.93203662  0.92438494     0.08200
H1690       H  0.92514839  0.91702528  0.82195575     0.08200
H1691       H  0.95630839  0.93528648  0.80179764     0.08200
H1692       H  0.93240671  0.95617124  0.82635070     0.04900
C1693       C  0.87136972  0.21108279  0.76357839    -0.20900
C1694       C  0.86646053  0.24071249  0.75481496    -0.07400
C1695       C  0.89163145  0.26067276  0.75322055     0.13400
C1696       C  0.92079655  0.25084384  0.76232662    -0.20900
C1697       C  0.92509743  0.22170780  0.77326889    -0.07400
C1698       C  0.90027339  0.20125196  0.77264905     0.13400
C1699       C  0.90400200  0.16889317  0.78117934    -0.24300
H1700       H  0.85205952  0.19573524  0.76440203     0.14700
H1701       H  0.93994525  0.26637059  0.76237161     0.14700
C1702       C  0.88750041  0.29260953  0.74360101    -0.24200
H1703       H  0.88276678  0.15579016  0.77690136     0.05000
H1704       H  0.90929594  0.16659609  0.80548239     0.08200
H1705       H  0.92266107  0.15901476  0.76763703     0.08200
H1706       H  0.87103917  0.30369133  0.75883096     0.08200
H1707       H  0.87866688  0.29345948  0.72017860     0.08200
H1708       H  0.90944082  0.30529450  0.74424808     0.04900
C1709       C  0.04492585  0.24677765  0.76035604    -0.20900
C1710       C  0.03808172  0.21732774  0.76902885    -0.07400
C1711       C  0.06009557  0.19493614  0.76422288     0.13400
C1712       C  0.08921109  0.20296102  0.75327109    -0.20900
C1713       C  0.09679461  0.23272727  0.74657757    -0.07400
C1714       C  0.07414838  0.25480548  0.74945325     0.13400
C1715       C  0.08136500  0.28708216  0.74300430    -0.24300
H1716       H  0.02791590  0.26385889  0.76376119     0.14700
H1717       H  0.10666753  0.18607462  0.75116667     0.14700
C1718       C  0.05295718  0.16254241  0.77032509    -0.24200
H1719       H  0.06123287  0.30148033  0.74694244     0.05000
H1720       H  0.08837830  0.28978682  0.71911917     0.08200
H1721       H  0.10020585  0.29485345  0.75786957     0.08200
H1722       H  0.03238922  0.15568671  0.75732015     0.08200
H1723       H  0.04881921  0.15873811  0.79465804     0.08200
H1724       H  0.07213664  0.14801065  0.76355520     0.04900
C1725       C  0.00658794  0.15396935  0.86079537    -0.20900
C1726       C  0.98233771  0.17373781  0.85575162    -0.07400
C1727       C  0.95899140  0.17572155  0.87802915     0.13400
C1728       C  0.95952029  0.15641816  0.90323262    -0.20900
C1729       C  0.98280109  0.13545158  0.90690316    -0.07400
C1730       C  0.00717219  0.13501004  0.88599023     0.13400
C1731       C  0.03409359  0.11464983  0.89030020    -0.24300
H1732       H  0.02493150  0.15262568  0.84448300     0.14700
H1733       H  0.94114044  0.15700292  0.91962399     0.14700
C1734       C  0.93382065  0.19840226  0.87602409    -0.24200
H1735       H  0.05180993  0.11810606  0.87264226     0.05000
H1736       H  0.02636794  0.09117245  0.88917187     0.08200
H1737       H  0.04486531  0.11881585  0.91254034     0.08200
H1738       H  0.91842954  0.19338042  0.85683825     0.08200
H1739       H  0.94391873  0.22104990  0.87330162     0.08200
H1740       H  0.91946956  0.19839772  0.89668141     0.04900
C1741       C  0.78178368  0.93249988  0.75152481    -0.20900
C1742       C  0.75452595  0.91978993  0.76259035    -0.07400
C1743       C  0.73613138  0.93636128  0.78248551     0.13400
C1744       C  0.74537738  0.96522779  0.79086748    -0.20900
C1745       C  0.77330489  0.97738475  0.78094632    -0.07400
C1746       C  0.79159382  0.96097635  0.76082871     0.13400
C1747       C  0.82191415  0.97312499  0.75000459    -0.24300
H1748       H  0.79633029  0.91938420  0.73706037     0.14700
H1749       H  0.73172084  0.97760866  0.80677552     0.14700
C1750       C  0.70756708  0.92290036  0.79617679    -0.24200
H1751       H  0.83339316  0.95749228  0.73445437     0.05000
H1752       H  0.83734161  0.97693264  0.76946980     0.08200
H1753       H  0.81836835  0.99453250  0.73789346     0.08200
H1754       H  0.71352334  0.90300942  0.80988779     0.08200
H1755       H  0.69146122  0.91617497  0.77806999     0.08200
H1756       H  0.69571809  0.93885906  0.81109811     0.04900
C1757       C  0.75883199  0.12759087  0.75979439    -0.20900
C1758       C  0.75566867  0.14746247  0.78392394    -0.07400
C1759       C  0.76073494  0.13704268  0.81363149     0.13400
C1760       C  0.76899490  0.10728904  0.81830426    -0.20900
C1761       C  0.77276419  0.08744817  0.79423535    -0.07400
C1762       C  0.76774629  0.09783834  0.76450388     0.13400
C1763       C  0.77328748  0.07833130  0.73762310    -0.24300
H1764       H  0.75533104  0.13569479  0.73701375     0.14700
H1765       H  0.77281162  0.09949295  0.84114482     0.14700
C1766       C  0.75679656  0.15682235  0.84069956    -0.24200
H1767       H  0.76992678  0.09063800  0.71610876     0.05000
H1768       H  0.75707922  0.05917066  0.73786785     0.08200
H1769       H  0.79718231  0.07009015  0.73804797     0.08200
H1770       H  0.73354623  0.16659556  0.84049153     0.08200
H1771       H  0.77431244  0.17486835  0.84059600     0.08200
H1772       H  0.75947416  0.14429266  0.86218276     0.04900
C1773       C  0.83258108  0.04681341  0.88283666    -0.20900
C1774       C  0.83569386  0.02560304  0.85982514    -0.07400
C1775       C  0.85998271  0.00500123  0.86153853     0.13400
C1776       C  0.88139653  0.00738196  0.88502330    -0.20900
C1777       C  0.87849395  0.02889748  0.90756925    -0.07400
C1778       C  0.85336991  0.04844016  0.90689643     0.13400
C1779       C  0.84893563  0.07166288  0.93086519    -0.24300
H1780       H  0.81376048  0.06236807  0.88194926     0.14700
H1781       H  0.90054610  0.99221682  0.88592914     0.14700
C1782       C  0.86408233  0.98093323  0.83848480    -0.24200
H1783       H  0.82875679  0.08582912  0.92612851     0.05000
H1784       H  0.86945379  0.08638878  0.93212731     0.08200
H1785       H  0.84514956  0.06069028  0.95303883     0.08200
H1786       H  0.86701548  0.99101779  0.81576935     0.08200
H1787       H  0.84397139  0.96565837  0.83871034     0.08200
H1788       H  0.88441066  0.96718049  0.84344398     0.04900
C1789       C  0.22238258  0.80057594  0.09274633    -0.20900
C1790       C  0.22073880  0.82075990  0.11670470    -0.07400
C1791       C  0.21681692  0.85142076  0.11047538     0.13400
C1792       C  0.21220627  0.86065344  0.08064709    -0.20900
C1793       C  0.21151165  0.84016207  0.05688792    -0.07400
C1794       C  0.21769626  0.80982882  0.06287716     0.13400
C1795       C  0.21775061  0.78681071  0.03832762    -0.24300
H1796       H  0.22611135  0.77717860  0.09755097     0.14700
H1797       H  0.20821709  0.88402320  0.07590428     0.14700
C1798       C  0.21788859  0.87460830  0.13493959    -0.24200
H1799       H  0.22172409  0.76405682  0.04740550     0.05000
H1800       H  0.23633683  0.79188746  0.02199282     0.08200
H1801       H  0.19532580  0.78662512  0.02655612     0.08200
H1802       H  0.23954770  0.87264121  0.14787642     0.08200
H1803       H  0.19807216  0.87179612  0.15034625     0.08200
H1804       H  0.21689770  0.89756766  0.12553313     0.04900
C1805       C  0.22246869  0.81034150  0.94221220    -0.20900
C1806       C  0.21455551  0.84048204  0.94533578    -0.07400
C1807       C  0.21809149  0.85996188  0.92035311     0.13400
C1808       C  0.22676066  0.84839077  0.89247460    -0.20900
C1809       C  0.23199423  0.81790714  0.88867371    -0.07400
C1810       C  0.23102966  0.79875129  0.91404975     0.13400
C1811       C  0.23729788  0.76597138  0.91119246    -0.24300
H1812       H  0.22037370  0.79549532  0.96146821     0.14700
H1813       H  0.22805730  0.86308908  0.87301720     0.14700
C1814       C  0.21280822  0.89301862  0.92267628    -0.24200
H1815       H  0.23483434  0.75414705  0.93312811     0.05000
H1816       H  0.26105810  0.76272873  0.90306894     0.08200
H1817       H  0.22097715  0.75576250  0.89502074     0.08200
H1818       H  0.22622736  0.90228099  0.94172772     0.08200
H1819       H  0.18811847  0.89757068  0.92589934     0.08200
H1820       H  0.22016072  0.90494884  0.90191138     0.04900
C1821       C  0.14149986  0.92572270  0.01908380    -0.20900
C1822       C  0.13959968  0.90108340  0.99988007    -0.07400
C1823       C  0.11313150  0.89692430  0.98204518     0.13400
C1824       C  0.08930983  0.91756755  0.98390627    -0.20900
C1825       C  0.09157646  0.94276358  0.00232480    -0.07400
C1826       C  0.11803399  0.94682244  0.02033730     0.13400
C1827       C  0.12135826  0.97265244  0.04170408    -0.24300
H1828       H  0.16171209  0.92865692  0.03295943     0.14700
H1829       H  0.06887902  0.91419034  0.97059354     0.14700
C1830       C  0.10940785  0.87041683  0.96167557    -0.24200
H1831       H  0.14246717  0.97096180  0.05553125     0.05000
H1832       H  0.10149931  0.97312460  0.05730845     0.08200
H1833       H  0.12284443  0.99393323  0.02892127     0.08200
H1834       H  0.11188514  0.84950475  0.97490549     0.08200
H1835       H  0.12688967  0.87128324  0.94355984     0.08200
H1836       H  0.08656200  0.86994588  0.95070391     0.04900
C1837       C  0.73835176  0.21230959  0.11628582    -0.20900
C1838       C  0.73059445  0.24208084  0.12127311    -0.07400
C1839       C  0.72941793  0.26191305  0.09644353     0.13400
C1840       C  0.73831779  0.25194838  0.06766173    -0.20900
C1841       C  0.74861590  0.22266671  0.06319119    -0.07400
C1842       C  0.74730232  0.20230624  0.08779419     0.13400
C1843       C  0.75561132  0.16996123  0.08467004    -0.24300
H1844       H  0.73878163  0.19699529  0.13527888     0.14700
H1845       H  0.73862863  0.26751362  0.04890344     0.14700
C1846       C  0.72041745  0.29391076  0.10053259    -0.24200
H1847       H  0.74925727  0.15677598  0.10502084     0.05000
H1848       H  0.78069538  0.16799224  0.08190506     0.08200
H1849       H  0.74342877  0.16002137  0.06517056     0.08200
H1850       H  0.73599841  0.30482536  0.11693987     0.08200
H1851       H  0.69651814  0.29491026  0.10893871     0.08200
H1852       H  0.72164836  0.30664463  0.07903516     0.04900
C1853       C  0.74812760  0.25661631  0.94386150    -0.20900
C1854       C  0.74750902  0.22613613  0.95121471    -0.07400
C1855       C  0.73589834  0.20564376  0.92992792     0.13400
C1856       C  0.72767686  0.21572074  0.90105560    -0.20900
C1857       C  0.73025041  0.24585492  0.89300652    -0.07400
C1858       C  0.73965753  0.26676083  0.91496176     0.13400
C1859       C  0.74217790  0.29966875  0.90833142    -0.24300
H1860       H  0.75660558  0.27245911  0.96025806     0.14700
H1861       H  0.72010011  0.19983712  0.88430669     0.14700
C1862       C  0.73187212  0.17311977  0.93767260    -0.24200
H1863       H  0.72683297  0.31196472  0.92371887     0.05000
H1864       H  0.73570792  0.30549446  0.88493388     0.08200
H1865       H  0.76610818  0.30735486  0.91200512     0.08200
H1866       H  0.71707748  0.17074793  0.95790265     0.08200
H1867       H  0.75439856  0.16282529  0.94220138     0.08200
H1868       H  0.72087033  0.16061947  0.91901400     0.04900
C1869       C  0.87163663  0.14558999  0.98548716    -0.20900
C1870       C  0.87361025  0.12490417  0.00919157    -0.07400
C1871       C  0.85058635  0.12428364  0.03149822     0.13400
C1872       C  0.82576041  0.14386936  0.02907032    -0.20900
C1873       C  0.82354672  0.16474542  0.00534835    -0.07400
C1874       C  0.84709470  0.16561513  0.98330668     0.13400
C1875       C  0.84738647  0.18822120  0.95806622    -0.24300
H1876       H  0.88941991  0.14595855  0.96844520     0.14700
H1877       H  0.80796820  0.14283073  0.04596426     0.14700
C1878       C  0.85282163  0.10394904  0.05859807    -0.24200
H1879       H  0.86857917  0.18687707  0.94432550     0.05000
H1880       H  0.84625812  0.21103734  0.96747305     0.08200
H1881       H  0.82771018  0.18427172  0.94276921     0.08200
H1882       H  0.87457067  0.10847254  0.07077639     0.08200
H1883       H  0.85217373  0.08030540  0.05152862     0.08200
H1884       H  0.83363663  0.10737761  0.07459117     0.04900
C1885       C  0.76838586  0.83993006  0.07458053    -0.20900
C1886       C  0.77908218  0.81540340  0.05837915    -0.07400
C1887       C  0.77813945  0.78679597  0.07174510     0.13400
C1888       C  0.76782095  0.78374758  0.10157990    -0.20900
C1889       C  0.75867923  0.80860774  0.11828663    -0.07400
C1890       C  0.75808342  0.83688355  0.10428417     0.13400
C1891       C  0.74607844  0.86375491  0.12025909    -0.24300
H1892       H  0.76873141  0.86180638  0.06406902     0.14700
H1893       H  0.76794896  0.76198888  0.11232232     0.14700
C1894       C  0.78936870  0.75978388  0.05530840    -0.24200
H1895       H  0.74577127  0.88374476  0.10538070     0.05000
H1896       H  0.76087000  0.86898137  0.13984808     0.08200
H1897       H  0.72225092  0.85921294  0.12783166     0.08200
H1898       H  0.81362943  0.76315931  0.04853847     0.08200
H1899       H  0.77513815  0.75594053  0.03498417     0.08200
H1900       H  0.78797590  0.73940750  0.06959207     0.04900
C1901       C  0.81644465  0.79757186  0.92611357    -0.20900
C1902       C  0.79406799  0.79793808  0.94891096    -0.07400
C1903       C  0.76444352  0.78628965  0.94255034     0.13400
C1904       C  0.75763799  0.77666373  0.91321936    -0.20900
C1905       C  0.77928611  0.77898571  0.89002889    -0.07400
C1906       C  0.80937916  0.78854040  0.89674674     0.13400
C1907       C  0.83401407  0.78959110  0.87292050    -0.24300
H1908       H  0.83937718  0.80563253  0.93094492     0.14700
H1909       H  0.73454763  0.76942382  0.90780070     0.14700
C1910       C  0.73915689  0.78570627  0.96565272    -0.24200
H1911       H  0.85662169  0.79591327  0.88251376     0.05000
H1912       H  0.82839832  0.80624615  0.85525783     0.08200
H1913       H  0.83623117  0.76730960  0.86249050     0.08200
H1914       H  0.73493962  0.80858440  0.97393454     0.08200
H1915       H  0.74547166  0.77088114  0.98470940     0.08200
H1916       H  0.71731197  0.77707828  0.95615847     0.04900
C1917       C  0.85002168  0.89741487  0.97777874    -0.20900
C1918       C  0.85124046  0.87681837  0.00172938    -0.07400
C1919       C  0.87286959  0.88105244  0.02513614     0.13400
C1920       C  0.89179033  0.90632358  0.02452313    -0.20900
C1921       C  0.88972205  0.92732743  0.00123505    -0.07400
C1922       C  0.86921086  0.92266614  0.97720327     0.13400
C1923       C  0.86843318  0.94366935  0.95057232    -0.24300
H1924       H  0.83378805  0.89391271  0.95965949     0.14700
H1925       H  0.90836387  0.90980299  0.04238265     0.14700
C1926       C  0.87710367  0.85861008  0.05023162    -0.24200
H1927       H  0.85155890  0.93631654  0.93339441     0.05000
H1928       H  0.89135851  0.94468095  0.93975397     0.08200
H1929       H  0.86203580  0.96632774  0.95799872     0.08200
H1930       H  0.88142971  0.83627713  0.04060970     0.08200
H1931       H  0.85653582  0.85769610  0.06485008     0.08200
H1932       H  0.89687200  0.86447627  0.06484890     0.04900
loop_ 
_geom_bond_atom_site_label_1 
_geom_bond_atom_site_label_2 
_geom_bond_distance 
_geom_bond_site_symmetry_2 
_ccdc_geom_bond_type 
C1            N2   1.360       .  A
C1            N6   1.352       .  A
C1         C1886   1.474       .  S
N2            C3   1.363   1_554  A
C3            N4   1.363       .  A
C3         C1902   1.490       .  S
N4            C5   1.356   1_556  A
C5            N6   1.350       .  A
C5         C1918   1.475       .  S
C7            N8   1.365       .  A
C7           N12   1.360       .  A
C7         C1841   1.495       .  S
N8            C9   1.364   1_554  A
C9           N10   1.362       .  A
C9         C1854   1.485       .  S
N10          C11   1.358   1_556  A
C11          N12   1.357       .  A
C11        C1873   1.497       .  S
C13          N14   1.361       .  A
C13          N18   1.357       .  A
C13        C1793   1.478       .  S
N14          C15   1.360   1_554  A
C15          N16   1.359       .  A
C15        C1806   1.483       .  S
N16          C17   1.355   1_556  A
C17          N18   1.353       .  A
C17        C1822   1.478   1_554  S
C19          N20   1.356       .  A
C19          N24   1.364       .  A
C19        C1761   1.488       .  S
N20          C21   1.353       .  A
C21          N22   1.358       .  A
C21        C1774   1.488       .  S
N22          C23   1.361       .  A
C23          N24   1.364       .  A
C23        C1745   1.481   1_545  S
C25          N26   1.361       .  A
C25          N30   1.359       .  A
C25        C1697   1.482       .  S
N26          C27   1.361   1_655  A
C27          N28   1.361       .  A
C27        C1710   1.483       .  S
N28          C29   1.361   1_455  A
C29          N30   1.356       .  A
C29        C1726   1.497       .  S
C31          N32   1.354       .  A
C31          N36   1.360       .  A
C31        C1646   1.474       .  S
N32          C33   1.352       .  A
C33          N34   1.358   1_655  A
C33        C1678   1.483       .  S
N34          C35   1.365       .  A
C35          N36   1.363   1_455  A
C35        C1662   1.493       .  S
C37          N38   1.354       .  A
C37          N42   1.361       .  A
C37        C1614   1.471       .  S
N38          C39   1.349       .  A
C39          N40   1.348       .  A
C39        C1633   1.455       .  S
N40          C41   1.352       .  A
C41          N42   1.361       .  A
C41        C1598   1.468   1_545  S
C43          N44   1.359       .  A
C43          N48   1.363       .  A
C43        C1566   1.488       .  S
N44          C45   1.354       .  A
C45          N46   1.358   1_655  A
C45        C1582   1.492       .  S
N46          C47   1.360       .  A
C47          N48   1.363   1_455  A
C47        C1550   1.486       .  S
C49          N50   1.353       .  A
C49          N54   1.369       .  A
C49        C1521   1.507       .  S
N50          C51   1.352       .  A
C51          N52   1.354       .  A
C51        C1534   1.482       .  S
N52          C53   1.361       .  A
C53          N54   1.368       .  A
C53        C1502   1.485   1_545  S
C55          N56   1.361       .  A
C55          N60   1.361       .  A
C55        C1470   1.484       .  S
N56          C57   1.360   1_655  A
C57          N58   1.358       .  A
C57        C1486   1.484       .  S
N58          C59   1.357   1_455  A
C59          N60   1.357       .  A
C59        C1457   1.505       .  S
Zr61         O62   2.443       .  S
Zr61         O63   2.422       .  S
Zr61         O64   2.412       .  S
Zr61         O67   2.416       .  S
Zr61         O69   2.379       .  S
Zr61         O70   2.376       .  S
Zr61         O71   2.400       .  S
Zr61         O72   2.392       .  S
O62         H118   0.991       .  S
O62         H126   0.990       .  S
O63          C83   1.284       .  A
O64          C85   1.279       .  A
O65         Zr75   2.446       .  S
O65          C84   1.286       .  A
O66         Zr74   2.459       .  S
O66          C85   1.288       .  A
O67          C84   1.282       .  A
O68         Zr76   2.438       .  S
O68          C83   1.283       .  A
O69         Zr74   2.401       .  S
O69         Zr76   2.381       .  S
O70         Zr75   2.394       .  S
O70         Zr76   2.375       .  S
O70         H105   0.966       .  S
O71         Zr74   2.405       .  S
O71         Zr91   2.398       .  S
O71         H108   0.966       .  S
O72         Zr75   2.396       .  S
O72         Zr91   2.391       .  S
Zr73         O98   2.448       .  S
Zr73         O92   2.435       .  S
Zr73        O100   2.428       .  S
Zr73         O88   2.410       .  S
Zr73         O79   2.394       .  S
Zr73         O80   2.406       .  S
Zr73         O81   2.377       .  S
Zr73         O82   2.375       .  S
Zr74         O93   2.437       .  S
Zr74         O86   2.435       .  S
Zr74         O87   2.460       .  S
Zr74         O80   2.400       .  S
Zr74         O81   2.396       .  S
Zr75         O77   2.434       .  S
Zr75         O99   2.438       .  S
Zr75        O101   2.448       .  S
Zr75         O79   2.391       .  S
Zr75         O82   2.395       .  S
Zr76        O102   2.436       .  S
Zr76        O103   2.435       .  S
Zr76         O78   2.436       .  S
Zr76         O79   2.394       .  S
Zr76         O80   2.402       .  S
O77         H114   0.990       .  S
O78         H109   0.990       .  S
O78         H123   0.990       .  S
O80         H106   0.966       .  S
O81         Zr91   2.376       .  S
O82         Zr91   2.384       .  S
O82         H107   0.966       .  S
C83        C1406   1.496       .  S
C84        C1374   1.474       .  S
C85        C1390   1.483       .  S
O86         H122   0.990       .  S
O87          C89   1.289       .  A
O88          C89   1.280       .  A
C89        C1425   1.483       .  S
O90         Zr91   2.434       .  S
O90         H119   0.990       .  S
Zr91         O94   2.435       .  S
Zr91         O95   2.438       .  S
Zr91         O96   2.424       .  S
O92          C97   1.285       .  A
O93         H110   0.990       .  S
O93         H125   0.990       .  S
O94         H111   0.990       .  S
O95         H115   0.990       .  S
O95         H124   0.990       .  S
O96          C97   1.281       .  A
C97        C1438   1.483       .  S
O98         H117   0.990       .  S
O98         H121   0.990       .  S
O99         H113   0.990       .  S
O99         H120   0.990       .  S
O100        C104   1.284       .  A
O101        C104   1.286       .  A
O102        H112   0.990       .  S
O103        H116   0.990       .  S
C104       C1489   1.484       .  S
C127        N128   1.356       .  A
C127        N132   1.361       .  A
C127       C1441   1.479       .  S
N128        C129   1.350       .  A
C129        N130   1.356       .  A
C129       C1345   1.480       .  S
N130        C131   1.362       .  A
C131        N132   1.363       .  A
C131       C1361   1.476   1_545  S
Zr133       O134   2.440       .  S
Zr133       O135   2.429       .  S
Zr133       O136   2.420       .  S
Zr133       O139   2.415       .  S
Zr133       O141   2.377       .  S
Zr133       O142   2.377       .  S
Zr133       O143   2.399       .  S
Zr133       O144   2.394       .  S
O134        H190   0.990       .  S
O134        H198   0.991       .  S
O135        C155   1.284       .  A
O136        C157   1.283       .  A
O137       Zr147   2.435       .  S
O137        C156   1.284       .  A
O138       Zr146   2.452       .  S
O138        C157   1.287       .  A
O139        C156   1.283       .  A
O140       Zr148   2.434       .  S
O140        C155   1.283       .  A
O141       Zr146   2.401       .  S
O141       Zr148   2.380       .  S
O142       Zr147   2.393       .  S
O142       Zr148   2.368       .  S
O142        H177   0.966       .  S
O143       Zr146   2.404       .  S
O143       Zr163   2.382       .  S
O143        H180   0.965       .  S
O144       Zr147   2.393       .  S
O144       Zr163   2.394       .  S
Zr145       O170   2.443       .  S
Zr145       O164   2.427       .  S
Zr145       O172   2.417       .  S
Zr145       O160   2.404       .  S
Zr145       O151   2.398       .  S
Zr145       O152   2.401       .  S
Zr145       O153   2.375       .  S
Zr145       O154   2.376       .  S
Zr146       O165   2.437       .  S
Zr146       O158   2.433       .  S
Zr146       O159   2.466       .  S
Zr146       O152   2.399       .  S
Zr146       O153   2.393       .  S
Zr147       O149   2.434       .  S
Zr147       O171   2.436       .  S
Zr147       O173   2.443       .  S
Zr147       O151   2.396       .  S
Zr147       O154   2.393       .  S
Zr148       O174   2.437       .  S
Zr148       O175   2.435       .  S
Zr148       O150   2.438       .  S
Zr148       O151   2.403       .  S
Zr148       O152   2.389       .  S
O149        H186   0.990       .  S
O150        H181   0.990       .  S
O150        H195   0.990       .  S
O152        H178   0.965       .  S
O153       Zr163   2.381       .  S
O154       Zr163   2.380       .  S
O154        H179   0.966       .  S
C155       C1297   1.487       .  S
C156       C1310   1.469       .  S
C157       C1326   1.475       .  S
O158        H194   0.990       .  S
O159        C161   1.290       .  A
O160        C161   1.281       .  A
C161       C1358   1.485       .  S
O162       Zr163   2.436       .  S
O162        H191   0.990       .  S
Zr163       O166   2.436       .  S
Zr163       O167   2.439       .  S
Zr163       O168   2.409       .  S
O164        C169   1.282       .  A
O165        H182   0.990       .  S
O165        H197   0.990       .  S
O166        H183   0.990       .  S
O167        H187   0.991       .  S
O167        H196   0.990       .  S
O168        C169   1.279       .  A
C169       C1790   1.476       .  S
O170        H189   0.991       .  S
O170        H193   0.991       .  S
O171        H185   0.990       .  S
O171        H192   0.990       .  S
O172        C176   1.280       .  A
O173        C176   1.285       .  A
O174        H184   0.990       .  S
O175        H188   0.990       .  S
C176       C1553   1.476       .  S
Zr199       O200   2.439       .  S
Zr199       O201   2.423       .  S
Zr199       O202   2.418       .  S
Zr199       O205   2.416       .  S
Zr199       O207   2.376       .  S
Zr199       O208   2.376       .  S
Zr199       O209   2.400       .  S
Zr199       O210   2.400       .  S
O200        H256   0.991       .  S
O200        H264   0.990       .  S
O201        C221   1.284       .  A
O202        C223   1.281       .  A
O203       Zr213   2.460       .  S
O203        C222   1.289       .  A
O204       Zr212   2.443       .  S
O204        C223   1.285       .  A
O205        C222   1.283       .  A
O206       Zr214   2.447       .  S
O206        C221   1.285       .  A
O207       Zr212   2.399       .  S
O207       Zr214   2.377       .  S
O208       Zr213   2.392       .  S
O208       Zr214   2.371       .  S
O208        H243   0.966       .  S
O209       Zr212   2.401       .  S
O209       Zr229   2.394       .  S
O209        H246   0.966       .  S
O210       Zr213   2.395       .  S
O210       Zr229   2.402       .  S
Zr211       O236   2.443       .  S
Zr211       O230   2.432       .  S
Zr211       O238   2.423       .  S
Zr211       O226   2.430       .  S
Zr211       O217   2.405       .  S
Zr211       O218   2.404       .  S
Zr211       O219   2.374       .  S
Zr211       O220   2.381       .  S
Zr212       O231   2.436       .  S
Zr212       O224   2.434       .  S
Zr212       O225   2.450       .  S
Zr212       O218   2.400       .  S
Zr212       O219   2.395       .  S
Zr213       O215   2.437       .  S
Zr213       O237   2.437       .  S
Zr213       O239   2.435       .  S
Zr213       O217   2.403       .  S
Zr213       O220   2.400       .  S
Zr214       O240   2.435       .  S
Zr214       O241   2.437       .  S
Zr214       O216   2.436       .  S
Zr214       O217   2.402       .  S
Zr214       O218   2.398       .  S
O215        H252   0.989       .  S
O216        H247   0.990       .  S
O216        H261   0.990       .  S
O218        H244   0.966       .  S
O219       Zr229   2.381       .  S
O220       Zr229   2.378       .  S
O220        H245   0.966       .  S
C221       C1518   1.507       .  S
C222       C1838   1.486       .  S
C223       C1473   1.474       .  S
O224        H260   0.990       .  S
O225        C227   1.287       .  A
O226        C227   1.284       .  A
C227       C1249   1.477       .  S
O228       Zr229   2.439       .  S
O228        H257   0.990       .  S
Zr229       O232   2.437       .  S
Zr229       O233   2.438       .  S
Zr229       O234   2.430       .  S
O230        C235   1.285       .  A
O231        H248   0.990       .  S
O231        H263   0.990       .  S
O232        H249   0.990       .  S
O233        H253   0.990       .  S
O233        H262   0.989       .  S
O234        C235   1.281       .  A
C235       C1262   1.492       .  S
O236        H255   0.991       .  S
O236        H259   0.990       .  S
O237        H251   0.991       .  S
O237        H258   0.990       .  S
O238        C242   1.282       .  A
O239        C242   1.284       .  A
O240        H250   0.990       .  S
O241        H254   0.990       .  S
C242       C1278   1.475       .  S
Zr265       O266   2.443       .  S
Zr265       O267   2.428       .  S
Zr265       O268   2.431       .  S
Zr265       O271   2.407       .  S
Zr265       O273   2.380       .  S
Zr265       O274   2.382       .  S
Zr265       O275   2.401       .  S
Zr265       O276   2.395       .  S
O266        H322   0.990       .  S
O266        H330   0.990       .  S
O267        C287   1.282       .  A
O268        C289   1.282       .  A
O269       Zr279   2.454       .  S
O269        C288   1.287       .  A
O270       Zr278   2.448       .  S
O270        C289   1.285       .  A
O271        C288   1.281       .  A
O272       Zr280   2.434       .  S
O272        C287   1.283       .  A
O273       Zr278   2.405       .  S
O273       Zr280   2.379       .  S
O274       Zr279   2.393       .  S
O274       Zr280   2.381       .  S
O274        H309   0.965       .  S
O275       Zr278   2.404       .  S
O275       Zr295   2.388       .  S
O275        H312   0.965       .  S
O276       Zr279   2.395       .  S
O276       Zr295   2.388       .  S
Zr277       O302   2.441       .  S
Zr277       O296   2.441       .  S
Zr277       O304   2.431       .  S
Zr277       O292   2.426       .  S
Zr277       O283   2.399       .  S
Zr277       O284   2.411       .  S
Zr277       O285   2.373       .  S
Zr277       O286   2.375       .  S
Zr278       O297   2.437       .  S
Zr278       O290   2.435       .  S
Zr278       O291   2.447       .  S
Zr278       O284   2.406       .  S
Zr278       O285   2.394       .  S
Zr279       O281   2.436       .  S
Zr279       O303   2.437       .  S
Zr279       O305   2.448       .  S
Zr279       O283   2.397       .  S
Zr279       O286   2.397       .  S
Zr280       O306   2.434       .  S
Zr280       O307   2.435       .  S
Zr280       O282   2.438       .  S
Zr280       O283   2.401       .  S
Zr280       O284   2.400       .  S
O281        H318   0.990       .  S
O282        H313   0.990       .  S
O282        H327   0.990       .  S
O284        H310   0.966       .  S
O285       Zr295   2.370       .  S
O286       Zr295   2.384       .  S
O286        H311   0.966       .  S
C287       C1198   1.485       .  S
C288       C1214   1.481       .  S
C289       C1230   1.474       .  S
O290        H326   0.990       .  S
O291        C293   1.287       .  A
O292        C293   1.282       .  A
C293       C1569   1.484       .  S
O294       Zr295   2.434       .  S
O294        H323   0.990       .  S
Zr295       O298   2.435       .  S
Zr295       O299   2.436       .  S
Zr295       O300   2.409       .  S
O296        C301   1.285       .  A
O297        H314   0.990       .  S
O297        H329   0.990       .  S
O298        H315   0.991       .  S
O299        H319   0.990       .  S
O299        H328   0.990       .  S
O300        C301   1.279       .  A
C301       C1889   1.476       .  S
O302        H321   0.990       .  S
O302        H325   0.991       .  S
O303        H317   0.990       .  S
O303        H324   0.990       .  S
O304        C308   1.284       .  A
O305        C308   1.286       .  A
O306        H316   0.990       .  S
O307        H320   0.990       .  S
C308       C1505   1.481       .  S
C331        N332   1.362       .  A
C331        N336   1.358       .  A
C331       C1422   1.489       .  S
N332        C333   1.364   1_554  A
C333        N334   1.363       .  A
C333       C1182   1.485       .  S
N334        C335   1.358   1_556  A
C335        N336   1.355       .  A
C335       C1166   1.488       .  S
Zr337       O338   2.442       .  S
Zr337       O339   2.415       .  S
Zr337       O340   2.418       .  S
Zr337       O343   2.420       .  S
Zr337       O345   2.375       .  S
Zr337       O346   2.382       .  S
Zr337       O347   2.407       .  S
Zr337       O348   2.393       .  S
O338        H394   0.990       .  S
O338        H402   0.991       .  S
O339        C359   1.280       .  A
O340        C361   1.279       .  A
O341       Zr351   2.457       .  S
O341        C360   1.289       .  A
O342       Zr350   2.460       .  S
O342        C361   1.288       .  A
O343        C360   1.282       .  A
O344       Zr352   2.410       .  S
O344        C359   1.277       .  A
O345       Zr350   2.400       .  S
O345       Zr352   2.384       .  S
O346       Zr351   2.404       .  S
O346       Zr352   2.386       .  S
O346        H381   0.966       .  S
O347       Zr350   2.405       .  S
O347       Zr367   2.388       .  S
O347        H384   0.965       .  S
O348       Zr351   2.396       .  S
O348       Zr367   2.388       .  S
Zr349       O374   2.444       .  S
Zr349       O368   2.418       .  S
Zr349       O376   2.393       .  S
Zr349       O364   2.416       .  S
Zr349       O355   2.393       .  S
Zr349       O356   2.392       .  S
Zr349       O357   2.375       .  S
Zr349       O358   2.379       .  S
Zr350       O369   2.435       .  S
Zr350       O362   2.434       .  S
Zr350       O363   2.458       .  S
Zr350       O356   2.402       .  S
Zr350       O357   2.391       .  S
Zr351       O353   2.436       .  S
Zr351       O375   2.437       .  S
Zr351       O377   2.464       .  S
Zr351       O355   2.393       .  S
Zr351       O358   2.392       .  S
Zr352       O378   2.437       .  S
Zr352       O379   2.436       .  S
Zr352       O354   2.439       .  S
Zr352       O355   2.393       .  S
Zr352       O356   2.395       .  S
O353        H390   0.990       .  S
O354        H385   0.990       .  S
O354        H399   0.990       .  S
O356        H382   0.965       .  S
O357       Zr367   2.379       .  S
O358       Zr367   2.376       .  S
O358        H383   0.966       .  S
C359       C1617   1.468       .  S
C360       C1185   1.486       .  S
C361       C1713   1.479       .  S
O362        H398   0.990       .  S
O363        C365   1.289       .  A
O364        C365   1.282       .  A
C365       C1118   1.484       .  S
O366       Zr367   2.440       .  S
O366        H395   0.990       .  S
Zr367       O370   2.435       .  S
Zr367       O371   2.440       .  S
Zr367       O372   2.422       .  S
O368        C373   1.282       .  A
O369        H386   0.990       .  S
O369        H401   0.990       .  S
O370        H387   0.989       .  S
O371        H391   0.990       .  S
O371        H400   0.991       .  S
O372        C373   1.281       .  A
C373       C1134   1.470       .  S
O374        H393   0.991       .  S
O374        H397   0.990       .  S
O375        H389   0.990       .  S
O375        H396   0.990       .  S
O376        C380   1.279       .  A
O377        C380   1.290       .  A
O378        H388   0.989       .  S
O379        H392   0.990       .  S
C380       C1150   1.481       .  S
Zr403       O404   2.440       .  S
Zr403       O405   2.422       .  S
Zr403       O406   2.417       .  S
Zr403       O409   2.402       .  S
Zr403       O411   2.371       .  S
Zr403       O412   2.377       .  S
Zr403       O413   2.395       .  S
Zr403       O414   2.396       .  S
O404        H460   0.991       .  S
O404        H468   0.990       .  S
O405        C425   1.282       .  A
O406        C427   1.281       .  A
O407       Zr417   2.443       .  S
O407        C426   1.286       .  A
O408       Zr416   2.447       .  S
O408        C427   1.285       .  A
O409        C426   1.280       .  A
O410       Zr418   2.417       .  S
O410        C425   1.280       .  A
O411       Zr416   2.394       .  S
O411       Zr418   2.380       .  S
O412       Zr417   2.388       .  S
O412       Zr418   2.375       .  S
O412        H447   0.966       .  S
O413       Zr416   2.396       .  S
O413       Zr433   2.399       .  S
O413        H450   0.966       .  S
O414       Zr417   2.397       .  S
O414       Zr433   2.395       .  S
Zr415       O440   2.443       .  S
Zr415       O434   2.410       .  S
Zr415       O442   2.411       .  S
Zr415       O430   2.401       .  S
Zr415       O421   2.389       .  S
Zr415       O422   2.396       .  S
Zr415       O423   2.374       .  S
Zr415       O424   2.373       .  S
Zr416       O435   2.436       .  S
Zr416       O428   2.435       .  S
Zr416       O429   2.437       .  S
Zr416       O422   2.403       .  S
Zr416       O423   2.389       .  S
Zr417       O419   2.434       .  S
Zr417       O441   2.436       .  S
Zr417       O443   2.451       .  S
Zr417       O421   2.393       .  S
Zr417       O424   2.387       .  S
Zr418       O444   2.436       .  S
Zr418       O445   2.435       .  S
Zr418       O420   2.437       .  S
Zr418       O421   2.393       .  S
Zr418       O422   2.393       .  S
O419        H456   0.990       .  S
O420        H451   0.990       .  S
O420        H465   0.990       .  S
O422        H448   0.966       .  S
O423       Zr433   2.371       .  S
O424       Zr433   2.376       .  S
O424        H449   0.966       .  S
C425       C1601   1.468       .  S
C426       C1665   1.470       .  S
C427       C1809   1.478       .  S
O428        H464   0.990       .  S
O429        C431   1.286       .  A
O430        C431   1.279       .  A
C431       C1086   1.469       .  S
O432       Zr433   2.435       .  S
O432        H461   0.990       .  S
Zr433       O436   2.435       .  S
Zr433       O437   2.439       .  S
Zr433       O438   2.428       .  S
O434        C439   1.280       .  A
O435        H452   0.990       .  S
O435        H467   0.990       .  S
O436        H453   0.990       .  S
O437        H457   0.990       .  S
O437        H466   0.990       .  S
O438        C439   1.282       .  A
C439       C1102   1.473       .  S
O440        H459   0.990       .  S
O440        H463   0.990       .  S
O441        H455   0.990       .  S
O441        H462   0.990       .  S
O442        C446   1.281       .  A
O443        C446   1.287       .  A
O444        H454   0.990       .  S
O445        H458   0.990       .  S
C446       C1070   1.473       .  S
Zr469       O470   2.439       .  S
Zr469       O471   2.423       .  S
Zr469       O472   2.426       .  S
Zr469       O475   2.405       .  S
Zr469       O477   2.377       .  S
Zr469       O478   2.380       .  S
Zr469       O479   2.398       .  S
Zr469       O480   2.397       .  S
O470        H526   0.990       .  S
O470        H534   0.990       .  S
O471        C491   1.281       .  A
O472        C493   1.282       .  A
O473       Zr483   2.455       .  S
O473        C492   1.288       .  A
O474       Zr482   2.453       .  S
O474        C493   1.287       .  A
O475        C492   1.280       .  A
O476       Zr484   2.434       .  S
O476        C491   1.283       .  A
O477       Zr482   2.401       .  S
O477       Zr484   2.381       .  S
O478       Zr483   2.395       .  S
O478       Zr484   2.378       .  S
O478        H513   0.967       .  S
O479       Zr482   2.402       .  S
O479       Zr499   2.390       .  S
O479        H516   0.972       .  S
O480       Zr483   2.396       .  S
O480       Zr499   2.394       .  S
Zr481       O506   2.441       .  S
Zr481       O500   2.430       .  S
Zr481       O508   2.418       .  S
Zr481       O496   2.402       .  S
Zr481       O487   2.396       .  S
Zr481       O488   2.401       .  S
Zr481       O489   2.373       .  S
Zr481       O490   2.374       .  S
Zr482       O501   2.436       .  S
Zr482       O494   2.434       .  S
Zr482       O495   2.458       .  S
Zr482       O488   2.401       .  S
Zr482       O489   2.392       .  S
Zr483       O485   2.434       .  S
Zr483       O507   2.436       .  S
Zr483       O509   2.462       .  S
Zr483       O487   2.399       .  S
Zr483       O490   2.396       .  S
Zr484       O510   2.435       .  S
Zr484       O511   2.437       .  S
Zr484       O486   2.438       .  S
Zr484       O487   2.404       .  S
Zr484       O488   2.392       .  S
O485        H522   0.990       .  S
O486        H517   0.990       .  S
O486        H531   0.990       .  S
O488        H514   0.967       .  S
O489       Zr499   2.374       .  S
O490       Zr499   2.382       .  S
O490        H515   0.967       .  S
C491       C1758   1.484       .  S
C492       C1694   1.479       .  S
C493       C1857   1.477       .  S
O494        H530   0.990       .  S
O495        C497   1.289       .  A
O496        C497   1.279       .  A
C497       C1038   1.475       .  S
O498       Zr499   2.438       .  S
O498        H527   0.990       .  S
Zr499       O502   2.437       .  S
Zr499       O503   2.440       .  S
Zr499       O504   2.420       .  S
O500        C505   1.283       .  A
O501        H518   0.990       .  S
O501        H533   0.990       .  S
O502        H519   0.990       .  S
O503        H523   0.990       .  S
O503        H532   0.990       .  S
O504        C505   1.281       .  A
C505       C1054   1.480       .  S
O506        H525   0.991       .  S
O506        H529   0.990       .  S
O507        H521   0.990       .  S
O507        H528   0.990       .  S
O508        C512   1.283       .  A
O509        C512   1.288       .  A
O510        H520   0.990       .  S
O511        H524   0.990       .  S
C512       C1025   1.497       .  S
Zr535       O536   2.441       .  S
Zr535       O537   2.423       .  S
Zr535       O538   2.414       .  S
Zr535       O541   2.407       .  S
Zr535       O543   2.375       .  S
Zr535       O544   2.379       .  S
Zr535       O545   2.398       .  S
Zr535       O546   2.396       .  S
O536        H592   0.990       .  S
O536        H600   0.990       .  S
O537        C557   1.282       .  A
O538        C559   1.280       .  A
O539       Zr549   2.466       .  S
O539        C558   1.291       .  A
O540       Zr548   2.443       .  S
O540        C559   1.286       .  A
O541        C558   1.280       .  A
O542       Zr550   2.422       .  S
O542        C557   1.281       .  A
O543       Zr548   2.396       .  S
O543       Zr550   2.376       .  S
O544       Zr549   2.390       .  S
O544       Zr550   2.383       .  S
O544        H579   0.966       .  S
O545       Zr548   2.399       .  S
O545       Zr565   2.393       .  S
O545        H582   0.966       .  S
O546       Zr549   2.394       .  S
O546       Zr565   2.393       .  S
Zr547       O572   2.440       .  S
Zr547       O566   2.412       .  S
Zr547       O574   2.415       .  S
Zr547       O562   2.435       .  S
Zr547       O553   2.395       .  S
Zr547       O554   2.397       .  S
Zr547       O555   2.375       .  S
Zr547       O556   2.384       .  S
Zr548       O567   2.436       .  S
Zr548       O560   2.433       .  S
Zr548       O561   2.444       .  S
Zr548       O554   2.401       .  S
Zr548       O555   2.391       .  S
Zr549       O551   2.437       .  S
Zr549       O573   2.435       .  S
Zr549       O575   2.451       .  S
Zr549       O553   2.397       .  S
Zr549       O556   2.398       .  S
Zr550       O576   2.436       .  S
Zr550       O577   2.435       .  S
Zr550       O552   2.436       .  S
Zr550       O553   2.391       .  S
Zr550       O554   2.394       .  S
O551        H588   0.990       .  S
O552        H583   0.990       .  S
O552        H597   0.990       .  S
O554        H580   0.966       .  S
O555       Zr565   2.377       .  S
O556       Zr565   2.381       .  S
O556        H581   0.966       .  S
C557       C1649   1.471       .  S
C558       C1742   1.478       .  S
C559       C1905   1.474       .  S
O560        H596   0.990       .  S
O561        C563   1.286       .  A
O562        C563   1.284       .  A
C563        C990   1.481       .  S
O564       Zr565   2.434       .  S
O564        H593   0.990       .  S
Zr565       O568   2.435       .  S
Zr565       O569   2.438       .  S
Zr565       O570   2.415       .  S
O566        C571   1.281       .  A
O567        H584   0.990       .  S
O567        H599   0.990       .  S
O568        H585   0.990       .  S
O569        H589   0.990       .  S
O569        H598   0.990       .  S
O570        C571   1.279       .  A
C571       C1009   1.463       .  S
O572        H591   0.990       .  S
O572        H595   0.990       .  S
O573        H587   0.990       .  S
O573        H594   0.990       .  S
O574        C578   1.282       .  A
O575        C578   1.287       .  A
O576        H586   0.990       .  S
O577        H590   0.990       .  S
C578        C974   1.479       .  S
C601        N602   1.356       .  A
C601        N606   1.355       .  A
C601       C1006   1.466       .  S
N602        C603   1.357       .  A
C603        N604   1.360       .  A
C603       C1089   1.488       .  S
N604        C605   1.354       .  A
C605        N606   1.352       .  A
C605        C958   1.468       .  S
C607        N608   1.355       .  A
C607        N612   1.359       .  A
C607       C1137   1.467       .  S
N608        C609   1.352       .  A
C609        N610   1.354       .  A
C609        C945   1.479       .  S
N610        C611   1.359       .  A
C611        N612   1.359       .  A
C611       C1105   1.480       .  S
C613        N614   1.358       .  A
C613        N618   1.357       .  A
C613       C1041   1.478       .  S
N614        C615   1.361       .  A
C615        N616   1.362       .  A
C615       C1153   1.482       .  S
N616        C617   1.358       .  A
C617        N618   1.357       .  A
C617        C926   1.489       .  S
C619        N620   1.354       .  A
C619        N624   1.362       .  A
C619       C1057   1.486       .  S
N620        C621   1.351       .  A
C621        N622   1.359       .  A
C621        C910   1.488       .  S
N622        C623   1.364       .  A
C623        N624   1.364       .  A
C623        C993   1.485       .  S
C625        N626   1.355       .  A
C625        N630   1.360       .  A
C625       C1281   1.478       .  S
N626        C627   1.352       .  A
C627        N628   1.359       .  A
C627        C897   1.487       .  S
N628        C629   1.363       .  A
C629        N630   1.361       .  A
C629       C1393   1.489       .  S
C631        N632   1.354       .  A
C631        N636   1.365       .  A
C631       C1265   1.494       .  S
N632        C633   1.353       .  A
C633        N634   1.357       .  A
C633        C878   1.484       .  S
N634        C635   1.362       .  A
C635        N636   1.365       .  A
C635       C1233   1.480       .  S
C637        N638   1.358       .  A
C637        N642   1.358       .  A
C637       C1217   1.471       .  S
N638        C639   1.356       .  A
C639        N640   1.357       .  A
C639        C862   1.487       .  S
N640        C641   1.360       .  A
C641        N642   1.359       .  A
C641       C1329   1.483       .  S
C643        N644   1.354       .  A
C643        N648   1.364       .  A
C643       C1409   1.485       .  S
N644        C645   1.349       .  A
C645        N646   1.351       .  A
C645        C849   1.471       .  S
N646        C647   1.357       .  A
C647        N648   1.364       .  A
C647       C1313   1.476       .  S
C649        N650   1.365       .  A
C649        N654   1.355       .  A
C649       C1201   1.479       .  S
N650        C651   1.367       .  A
C651        N652   1.361       .  A
C651        C977   1.493       .  S
N652        C653   1.355       .  A
C653        N654   1.350       .  A
C653        C830   1.483       .  S
C655        N656   1.364       .  A
C655        N660   1.359       .  A
C655       C1246   1.476       .  S
N656        C657   1.365       .  A
C657        N658   1.358       .  A
C657       C1022   1.497       .  S
N658        C659   1.354       .  A
C659        N660   1.355       .  A
C659        C814   1.483       .  S
C661        N662   1.355       .  A
C661        N666   1.361       .  A
C661       C1294   1.485       .  S
N662        C663   1.352       .  A
C663        N664   1.356       .  A
C663        C801   1.478       .  S
N664        C665   1.361       .  A
C665        N666   1.363       .  A
C665       C1073   1.477       .  S
C667        N668   1.359       .  A
C667        N672   1.362       .  A
C667       C1377   1.480       .  S
N668        C669   1.358       .  A
C669        N670   1.357       .  A
C669        C785   1.493       .  S
N670        C671   1.361       .  A
C671        N672   1.363       .  A
C671       C1121   1.491       .  S
O673       Zr709   2.444   1_565  S
O673        C684   1.293       .  A
O674       Zr708   2.430   1_565  S
O674        C685   1.290       .  A
O675       Zr681   2.463   1_556  S
O675        C686   1.296       .  A
O676       Zr681   2.424       .  S
O676        C687   1.289       .  A
O677       Zr711   2.462   1_565  S
O677        C687   1.296       .  A
O678       Zr710   2.432   1_565  S
O678        C686   1.291       .  A
O679       Zr681   2.439   1_455  S
O679        C685   1.292       .  A
O680       Zr681   2.409       .  S
O680        C684   1.287       .  A
Zr681       O682   2.338   1_665  S
Zr681       O683   2.336   1_564  S
Zr681       O691   2.348       .  S
Zr681       O689   2.318   1_664  S
O682       Zr708   2.332       .  S
O682       Zr711   2.337   1_455  S
O683       Zr709   2.339   1_556  S
O683       Zr710   2.326       .  S
C684       C1921   1.462       .  S
C685       C1825   1.481       .  S
C686       C1681   1.491       .  S
C687       C1585   1.481       .  S
H688        O689   0.965   1_565  S
O689       Zr708   2.337   1_556  S
O689       Zr710   2.335   1_455  S
H690        O691   0.965       .  S
O691       Zr709   2.341   1_565  S
O691       Zr711   2.341   1_565  S
O692       Zr708   2.427       .  S
O692        C715   1.291       .  A
O693       Zr709   2.438       .  S
O693        C716   1.292       .  A
O694       Zr710   2.420   1_455  S
O694        C717   1.290       .  A
O695       Zr711   2.443   1_455  S
O695        C718   1.292       .  A
O696       Zr711   2.431       .  S
O696        C719   1.290       .  A
O697       Zr710   2.435       .  S
O697        C720   1.291       .  A
O698       Zr712   2.467   1_556  S
O698        C721   1.297       .  A
O699       Zr712   2.453       .  S
O699        C722   1.294       .  A
O700       Zr710   2.421       .  S
O700        C721   1.289       .  A
O701       Zr711   2.446       .  S
O701        C722   1.293       .  A
O702       Zr708   2.427   1_556  S
O702        C717   1.289       .  A
O703       Zr709   2.441   1_556  S
O703        C720   1.292       .  A
O704       Zr709   2.443       .  S
O704        C719   1.293       .  A
O705       Zr708   2.430       .  S
O705        C718   1.291       .  A
O706       Zr712   2.456   1_455  S
O706        C715   1.294       .  A
O707       Zr712   2.457       .  S
O707        C716   1.296       .  A
Zr708       O714   2.340   1_554  S
Zr708       O726   2.335       .  S
Zr709       O713   2.345       .  S
Zr709       O724   2.345   1_554  S
Zr710       O714   2.342   1_655  S
Zr710       O724   2.339       .  S
Zr711       O713   2.351       .  S
Zr711       O726   2.345   1_655  S
Zr712       O713   2.355       .  S
Zr712       O714   2.345   1_654  S
Zr712       O726   2.354   1_655  S
Zr712       O724   2.349   1_554  S
C715       C1169   1.485       .  S
C716       C1870   1.481       .  S
C717       C1630   1.481       .  S
C718       C1342   1.484       .  S
C719       C1537   1.482       .  S
C720       C1777   1.477       .  S
C721       C1729   1.481       .  S
C722       C1454   1.476       .  S
H723        O724   0.966       .  S
H725        O726   0.966       .  S
O727       Zr763   2.451       .  S
O727        C738   1.296       .  A
O728       Zr762   2.475       .  S
O728        C739   1.298       .  A
O729       Zr735   2.439       .  S
O729        C740   1.292       .  A
O730       Zr735   2.434       .  S
O730        C741   1.291       .  A
O731       Zr765   2.444       .  S
O731        C741   1.292       .  A
O732       Zr764   2.425       .  S
O732        C740   1.289       .  A
O733       Zr735   2.407       .  S
O733        C739   1.286       .  A
O734       Zr735   2.405       .  S
O734        C738   1.283       .  A
Zr735       O736   2.332       .  S
Zr735       O737   2.329       .  S
Zr735       O745   2.334       .  S
Zr735       O743   2.337       .  S
O736       Zr762   2.349       .  S
O736       Zr765   2.350       .  S
O737       Zr763   2.328       .  S
O737       Zr764   2.335       .  S
C738        C961   1.490       .  S
C739        C929   1.480       .  S
C740        C942   1.466       .  S
C741        C913   1.479       .  S
H742        O743   0.966       .  S
O743       Zr762   2.336       .  S
O743       Zr764   2.344       .  S
H744        O745   0.966       .  S
O745       Zr763   2.329       .  S
O745       Zr765   2.334       .  S
O746       Zr762   2.450       .  S
O746        C769   1.295       .  A
O747       Zr763   2.434       .  S
O747        C770   1.291       .  A
O748       Zr764   2.425       .  S
O748        C771   1.289       .  A
O749       Zr765   2.434       .  S
O749        C772   1.292       .  A
O750       Zr765   2.465       .  S
O750        C773   1.297       .  A
O751       Zr764   2.430       .  S
O751        C774   1.290       .  A
O752       Zr766   2.442       .  S
O752        C775   1.293       .  A
O753       Zr766   2.435       .  S
O753        C776   1.291       .  A
O754       Zr764   2.436       .  S
O754        C775   1.290       .  A
O755       Zr765   2.434       .  S
O755        C776   1.292       .  A
O756       Zr762   2.464       .  S
O756        C771   1.296       .  A
O757       Zr763   2.427       .  S
O757        C774   1.291       .  A
O758       Zr763   2.413       .  S
O758        C773   1.287       .  A
O759       Zr762   2.440       .  S
O759        C772   1.293       .  A
O760       Zr766   2.438       .  S
O760        C769   1.292       .  A
O761       Zr766   2.448       .  S
O761        C770   1.294       .  A
Zr762       O768   2.351       .  S
Zr762       O780   2.360       .  S
Zr763       O767   2.340       .  S
Zr763       O778   2.335       .  S
Zr764       O768   2.334       .  S
Zr764       O778   2.334       .  S
Zr765       O767   2.335       .  S
Zr765       O780   2.353       .  S
Zr766       O767   2.339       .  S
Zr766       O768   2.345       .  S
Zr766       O780   2.346       .  S
Zr766       O778   2.338       .  S
C769        C894   1.482       .  S
C770        C865   1.477       .  S
C771        C782   1.479       .  S
C772        C817   1.475       .  S
C773        C833   1.483       .  S
C774        C798   1.473       .  S
C775        C846   1.487       .  S
C776        C881   1.481       .  S
H777        O778   0.965       .  S
H779        O780   0.966       .  S
C781        C782   1.401       .  A
C781        C786   1.408       .  A
C781        H788   1.085       .  S
C782        C783   1.412       .  A
C783        C784   1.404       .  A
C783        C790   1.508       .  S
C784        C785   1.407       .  A
C784        H789   1.084       .  S
C785        C786   1.422       .  A
C786        C787   1.508       .  S
C787        H791   1.111       .  S
C787        H792   1.110       .  S
C787        H793   1.109       .  S
C790        H794   1.110       .  S
C790        H795   1.109       .  S
C790        H796   1.111       .  S
C797        C798   1.399       .  A
C797        C802   1.398       .  A
C797        H804   1.085       .  S
C798        C799   1.415       .  A
C799        C800   1.405       .  A
C799        C806   1.508       .  S
C800        C801   1.404       .  A
C800        H805   1.084       .  S
C801        C802   1.416       .  A
C802        C803   1.507       .  S
C803        H807   1.111       .  S
C803        H808   1.111       .  S
C803        H809   1.106       .  S
C806        H810   1.110       .  S
C806        H811   1.109       .  S
C806        H812   1.111       .  S
C813        C814   1.406       .  A
C813        C818   1.404       .  A
C813        H820   1.084       .  S
C814        C815   1.416       .  A
C815        C816   1.403       .  A
C815        C822   1.506       .  S
C816        C817   1.402       .  A
C816        H821   1.085       .  S
C817        C818   1.413       .  A
C818        C819   1.508       .  S
C819        H823   1.111       .  S
C819        H824   1.110       .  S
C819        H825   1.109       .  S
C822        H826   1.110       .  S
C822        H827   1.110       .  S
C822        H828   1.111       .  S
C829        C830   1.402       .  A
C829        C834   1.402       .  A
C829        H836   1.084       .  S
C830        C831   1.419       .  A
C831        C832   1.405       .  A
C831        C838   1.508       .  S
C832        C833   1.403       .  A
C832        H837   1.084       .  S
C833        C834   1.419       .  A
C834        C835   1.510       .  S
C835        H839   1.111       .  S
C835        H840   1.110       .  S
C835        H841   1.109       .  S
C838        H842   1.110       .  S
C838        H843   1.109       .  S
C838        H844   1.111       .  S
C845        C846   1.405       .  A
C845        C850   1.402       .  A
C845        H852   1.077       .  S
C846        C847   1.420       .  A
C847        C848   1.402       .  A
C847        C854   1.510       .  S
C848        C849   1.400       .  A
C848        H853   1.084       .  S
C849        C850   1.411       .  A
C850        C851   1.508       .  S
C851        H855   1.111       .  S
C851        H856   1.110       .  S
C851        H857   1.109       .  S
C854        H858   1.111       .  S
C854        H859   1.109       .  S
C854        H860   1.111       .  S
C861        C862   1.406       .  A
C861        C866   1.405       .  A
C861        H868   1.084       .  S
C862        C863   1.419       .  A
C863        C864   1.406       .  A
C863        C870   1.508       .  S
C864        C865   1.401       .  A
C864        H869   1.084       .  S
C865        C866   1.413       .  A
C866        C867   1.509       .  S
C867        H871   1.111       .  S
C867        H872   1.111       .  S
C867        H873   1.110       .  S
C870        H874   1.110       .  S
C870        H875   1.109       .  S
C870        H876   1.111       .  S
C877        C878   1.405       .  A
C877        C882   1.402       .  A
C877        H884   1.083       .  S
C878        C879   1.414       .  A
C879        C880   1.405       .  A
C879        C886   1.505       .  S
C880        C881   1.405       .  A
C880        H885   1.084       .  S
C881        C882   1.416       .  A
C882        C883   1.510       .  S
C883        H887   1.111       .  S
C883        H888   1.110       .  S
C883        H889   1.111       .  S
C886        H890   1.109       .  S
C886        H891   1.110       .  S
C886        H892   1.111       .  S
C893        C894   1.401       .  A
C893        C898   1.408       .  A
C893        H900   1.084       .  S
C894        C895   1.415       .  A
C895        C896   1.402       .  A
C895        C902   1.503       .  S
C896        C897   1.402       .  A
C896        H901   1.084       .  S
C897        C898   1.420       .  A
C898        C899   1.508       .  S
C899        H903   1.111       .  S
C899        H904   1.109       .  S
C899        H905   1.110       .  S
C902        H906   1.107       .  S
C902        H907   1.110       .  S
C902        H908   1.111       .  S
C909        C910   1.410       .  A
C909        C914   1.404       .  A
C909        H916   1.084       .  S
C910        C911   1.415       .  A
C911        C912   1.403       .  A
C911        C918   1.504       .  S
C912        C913   1.404       .  A
C912        H917   1.085       .  S
C913        C914   1.412       .  A
C914        C915   1.508       .  S
C915        H919   1.111       .  S
C915        H920   1.110       .  S
C915        H921   1.111       .  S
C918        H922   1.109       .  S
C918        H923   1.109       .  S
C918        H924   1.111       .  S
C925        C926   1.403       .  A
C925        C930   1.399       .  A
C925        H932   1.084       .  S
C926        C927   1.420       .  A
C927        C928   1.412       .  A
C927        C934   1.507       .  S
C928        C929   1.404       .  A
C928        H933   1.084       .  S
C929        C930   1.416       .  A
C930        C931   1.511       .  S
C931        H935   1.111       .  S
C931        H936   1.109       .  S
C931        H937   1.108       .  S
C934        H938   1.109       .  S
C934        H939   1.110       .  S
C934        H940   1.111       .  S
C941        C942   1.399       .  A
C941        C946   1.400       .  A
C941        H948   1.084       .  S
C942        C943   1.409       .  A
C943        C944   1.403       .  A
C943        C950   1.508       .  S
C944        C945   1.408       .  A
C944        H949   1.084       .  S
C945        C946   1.417       .  A
C946        C947   1.508       .  S
C947        H951   1.111       .  S
C947        H952   1.110       .  S
C947        H953   1.110       .  S
C950        H954   1.111       .  S
C950        H955   1.110       .  S
C950        H956   1.111       .  S
C957        C958   1.397       .  A
C957        C962   1.403       .  A
C957        H964   1.085       .  S
C958        C959   1.408       .  A
C959        C960   1.398       .  A
C959        C966   1.504       .  S
C960        C961   1.406       .  A
C960        H965   1.083       .  S
C961        C962   1.428       .  A
C962        C963   1.511       .  S
C963        H967   1.111       .  S
C963        H968   1.110       .  S
C963        H969   1.109       .  S
C966        H970   1.105       .  S
C966        H971   1.111       .  S
C966        H972   1.111       .  S
C973        C974   1.403       .  A
C973        C978   1.409       .  A
C973        H980   1.084       .  S
C974        C975   1.411       .  A
C975        C976   1.401       .  A
C975        C982   1.507       .  S
C976        C977   1.408       .  A
C976        H981   1.084       .  S
C977        C978   1.418       .  A
C978        C979   1.503       .  S
C979        H983   1.111       .  S
C979        H984   1.109       .  S
C979        H985   1.110       .  S
C982        H986   1.110       .  S
C982        H987   1.109       .  S
C982        H988   1.111       .  S
C989        C990   1.402       .  A
C989        C994   1.403       .  A
C989        H996   1.085       .  S
C990        C991   1.414       .  A
C991        C992   1.409       .  A
C991        C998   1.506       .  S
C992        C993   1.405       .  A
C992        H997   1.084       .  S
C993        C994   1.416       .  A
C994        C995   1.506       .  S
C995        H999   1.111       .  S
C995       H1000   1.108       .  S
C995       H1001   1.109       .  S
C998       H1002   1.110       .  S
C998       H1003   1.110       .  S
C998       H1004   1.111       .  S
C1005      C1006   1.402       .  A
C1005      C1010   1.401       .  A
C1005      H1012   1.084       .  S
C1006      C1007   1.413       .  A
C1007      C1008   1.394       .  A
C1007      C1014   1.505       .  S
C1008      C1009   1.398       .  A
C1008      H1013   1.083       .  S
C1009      C1010   1.411       .  A
C1010      C1011   1.507       .  S
C1011      H1015   1.111       .  S
C1011      H1016   1.109       .  S
C1011      H1017   1.111       .  S
C1014      H1018   1.111       .  S
C1014      H1019   1.108       .  S
C1014      H1020   1.110       .  S
C1021      C1022   1.410       .  A
C1021      C1026   1.415       .  A
C1021      H1028   1.083       .  S
C1022      C1023   1.421       .  A
C1023      C1024   1.400       .  A
C1023      C1030   1.511       .  S
C1024      C1025   1.403       .  A
C1024      H1029   1.081       .  S
C1025      C1026   1.417       .  A
C1026      C1027   1.505       .  S
C1027      H1031   1.111       .  S
C1027      H1032   1.110       .  S
C1027      H1033   1.110       .  S
C1030      H1034   1.109       .  S
C1030      H1035   1.110       .  S
C1030      H1036   1.110       .  S
C1037      C1038   1.403       .  A
C1037      C1042   1.407       .  A
C1037      H1044   1.084       .  S
C1038      C1039   1.414       .  A
C1039      C1040   1.401       .  A
C1039      C1046   1.510       .  S
C1040      C1041   1.403       .  A
C1040      H1045   1.085       .  S
C1041      C1042   1.414       .  A
C1042      C1043   1.506       .  S
C1043      H1047   1.111       .  S
C1043      H1048   1.111       .  S
C1043      H1049   1.110       .  S
C1046      H1050   1.109       .  S
C1046      H1051   1.110       .  S
C1046      H1052   1.111       .  S
C1053      C1054   1.406       .  A
C1053      C1058   1.409       .  A
C1053      H1060   1.084       .  S
C1054      C1055   1.411       .  A
C1055      C1056   1.398       .  A
C1055      C1062   1.507       .  S
C1056      C1057   1.406       .  A
C1056      H1061   1.084       .  S
C1057      C1058   1.416       .  A
C1058      C1059   1.506       .  S
C1059      H1063   1.111       .  S
C1059      H1064   1.110       .  S
C1059      H1065   1.110       .  S
C1062      H1066   1.109       .  S
C1062      H1067   1.111       .  S
C1062      H1068   1.110       .  S
C1069      C1070   1.400       .  A
C1069      C1074   1.401       .  A
C1069      H1076   1.080       .  S
C1070      C1071   1.411       .  A
C1071      C1072   1.407       .  A
C1071      C1078   1.506       .  S
C1072      C1073   1.405       .  A
C1072      H1077   1.084       .  S
C1073      C1074   1.413       .  A
C1074      C1075   1.508       .  S
C1075      H1079   1.110       .  S
C1075      H1080   1.109       .  S
C1075      H1081   1.110       .  S
C1078      H1082   1.111       .  S
C1078      H1083   1.110       .  S
C1078      H1084   1.111       .  S
C1085      C1086   1.400       .  A
C1085      C1090   1.403       .  A
C1085      H1092   1.085       .  S
C1086      C1087   1.411       .  A
C1087      C1088   1.398       .  A
C1087      C1094   1.510       .  S
C1088      C1089   1.408       .  A
C1088      H1093   1.084       .  S
C1089      C1090   1.423       .  A
C1090      C1091   1.509       .  S
C1091      H1095   1.111       .  S
C1091      H1096   1.110       .  S
C1091      H1097   1.110       .  S
C1094      H1098   1.109       .  S
C1094      H1099   1.110       .  S
C1094      H1100   1.111       .  S
C1101      C1102   1.403       .  A
C1101      C1106   1.405       .  A
C1101      H1108   1.084       .  S
C1102      C1103   1.412       .  A
C1103      C1104   1.396       .  A
C1103      C1110   1.506       .  S
C1104      C1105   1.402       .  A
C1104      H1109   1.084       .  S
C1105      C1106   1.417       .  A
C1106      C1107   1.507       .  S
C1107      H1111   1.111       .  S
C1107      H1112   1.110       .  S
C1107      H1113   1.110       .  S
C1110      H1114   1.109       .  S
C1110      H1115   1.110       .  S
C1110      H1116   1.110       .  S
C1117      C1118   1.404       .  A
C1117      C1122   1.409       .  A
C1117      H1124   1.084       .  S
C1118      C1119   1.415       .  A
C1119      C1120   1.404       .  A
C1119      C1126   1.509       .  S
C1120      C1121   1.406       .  A
C1120      H1125   1.084       .  S
C1121      C1122   1.418       .  A
C1122      C1123   1.504       .  S
C1123      H1127   1.111       .  S
C1123      H1128   1.110       .  S
C1123      H1129   1.110       .  S
C1126      H1130   1.109       .  S
C1126      H1131   1.111       .  S
C1126      H1132   1.111       .  S
C1133      C1134   1.401       .  A
C1133      C1138   1.398       .  A
C1133      H1140   1.084       .  S
C1134      C1135   1.414       .  A
C1135      C1136   1.402       .  A
C1135      C1142   1.507       .  S
C1136      C1137   1.401       .  A
C1136      H1141   1.084       .  S
C1137      C1138   1.413       .  A
C1138      C1139   1.508       .  S
C1139      H1143   1.111       .  S
C1139      H1144   1.108       .  S
C1139      H1145   1.110       .  S
C1142      H1146   1.109       .  S
C1142      H1147   1.111       .  S
C1142      H1148   1.111       .  S
C1149      C1150   1.406       .  A
C1149      C1154   1.401       .  A
C1149      H1156   1.084       .  S
C1150      C1151   1.412       .  A
C1151      C1152   1.406       .  A
C1151      C1158   1.506       .  S
C1152      C1153   1.406       .  A
C1152      H1157   1.084       .  S
C1153      C1154   1.415       .  A
C1154      C1155   1.509       .  S
C1155      H1159   1.110       .  S
C1155      H1160   1.108       .  S
C1155      H1161   1.110       .  S
C1158      H1162   1.110       .  S
C1158      H1163   1.110       .  S
C1158      H1164   1.111       .  S
C1165      C1166   1.408   1_556  A
C1165      C1170   1.412       .  A
C1165      H1172   1.084       .  S
C1166      C1167   1.416       .  A
C1167      C1168   1.400       .  A
C1167      C1174   1.507       .  S
C1168      C1169   1.402       .  A
C1168      H1173   1.085       .  S
C1169      C1170   1.415   1_554  A
C1170      C1171   1.506       .  S
C1171      H1175   1.111       .  S
C1171      H1176   1.110       .  S
C1171      H1177   1.110       .  S
C1174      H1178   1.109       .  S
C1174      H1179   1.110       .  S
C1174      H1180   1.108       .  S
C1181      C1182   1.400       .  A
C1181      C1186   1.401       .  A
C1181      H1188   1.085       .  S
C1182      C1183   1.417       .  A
C1183      C1184   1.412       .  A
C1183      C1190   1.506       .  S
C1184      C1185   1.405       .  A
C1184      H1189   1.084       .  S
C1185      C1186   1.420       .  A
C1186      C1187   1.510       .  S
C1187      H1191   1.110       .  S
C1187      H1192   1.110       .  S
C1187      H1193   1.107       .  S
C1190      H1194   1.111       .  S
C1190      H1195   1.110       .  S
C1190      H1196   1.111       .  S
C1197      C1198   1.406       .  A
C1197      C1202   1.408       .  A
C1197      H1204   1.084       .  S
C1198      C1199   1.419       .  A
C1199      C1200   1.400       .  A
C1199      C1206   1.511       .  S
C1200      C1201   1.402       .  A
C1200      H1205   1.085       .  S
C1201      C1202   1.412       .  A
C1202      C1203   1.504       .  S
C1203      H1207   1.111       .  S
C1203      H1208   1.110       .  S
C1203      H1209   1.107       .  S
C1206      H1210   1.109       .  S
C1206      H1211   1.110       .  S
C1206      H1212   1.111       .  S
C1213      C1214   1.406       .  A
C1213      C1218   1.399       .  A
C1213      H1220   1.084       .  S
C1214      C1215   1.415       .  A
C1215      C1216   1.408       .  A
C1215      C1222   1.505       .  S
C1216      C1217   1.403       .  A
C1216      H1221   1.084       .  S
C1217      C1218   1.409       .  A
C1218      C1219   1.509       .  S
C1219      H1223   1.111       .  S
C1219      H1224   1.111       .  S
C1219      H1225   1.109       .  S
C1222      H1226   1.110       .  S
C1222      H1227   1.110       .  S
C1222      H1228   1.111       .  S
C1229      C1230   1.400       .  A
C1229      C1234   1.406       .  A
C1229      H1236   1.084       .  S
C1230      C1231   1.413       .  A
C1231      C1232   1.407       .  A
C1231      C1238   1.507       .  S
C1232      C1233   1.403       .  A
C1232      H1237   1.084       .  S
C1233      C1234   1.414       .  A
C1234      C1235   1.505       .  S
C1235      H1239   1.111       .  S
C1235      H1240   1.110       .  S
C1235      H1241   1.106       .  S
C1238      H1242   1.110       .  S
C1238      H1243   1.110       .  S
C1238      H1244   1.111       .  S
C1245      C1246   1.401       .  A
C1245      C1250   1.406       .  A
C1245      H1252   1.084       .  S
C1246      C1247   1.413       .  A
C1247      C1248   1.407       .  A
C1247      C1254   1.506       .  S
C1248      C1249   1.402       .  A
C1248      H1253   1.084       .  S
C1249      C1250   1.413       .  A
C1250      C1251   1.506       .  S
C1251      H1255   1.111       .  S
C1251      H1256   1.110       .  S
C1251      H1257   1.110       .  S
C1254      H1258   1.110       .  S
C1254      H1259   1.108       .  S
C1254      H1260   1.111       .  S
C1261      C1262   1.402       .  A
C1261      C1266   1.400       .  A
C1261      H1268   1.084       .  S
C1262      C1263   1.419       .  A
C1263      C1264   1.411       .  A
C1263      C1270   1.507       .  S
C1264      C1265   1.407       .  A
C1264      H1269   1.084       .  S
C1265      C1266   1.422       .  A
C1266      C1267   1.510       .  S
C1267      H1271   1.111       .  S
C1267      H1272   1.110       .  S
C1267      H1273   1.109       .  S
C1270      H1274   1.110       .  S
C1270      H1275   1.110       .  S
C1270      H1276   1.111       .  S
C1277      C1278   1.401       .  A
C1277      C1282   1.400       .  A
C1277      H1284   1.085       .  S
C1278      C1279   1.413       .  A
C1279      C1280   1.406       .  A
C1279      C1286   1.506       .  S
C1280      C1281   1.404       .  A
C1280      H1285   1.084       .  S
C1281      C1282   1.416       .  A
C1282      C1283   1.510       .  S
C1283      H1287   1.111       .  S
C1283      H1288   1.109       .  S
C1283      H1289   1.111       .  S
C1286      H1290   1.111       .  S
C1286      H1291   1.110       .  S
C1286      H1292   1.111       .  S
C1293      C1294   1.402       .  A
C1293      C1298   1.398       .  A
C1293      H1300   1.081       .  S
C1294      C1295   1.414       .  A
C1295      C1296   1.410       .  A
C1295      C1302   1.506       .  S
C1296      C1297   1.407       .  A
C1296      H1301   1.084       .  S
C1297      C1298   1.414       .  A
C1298      C1299   1.502       .  S
C1299      H1303   1.110       .  S
C1299      H1304   1.108       .  S
C1299      H1305   1.109       .  S
C1302      H1306   1.109       .  S
C1302      H1307   1.111       .  S
C1302      H1308   1.111       .  S
C1309      C1310   1.399       .  A
C1309      C1314   1.398       .  A
C1309      H1316   1.085       .  S
C1310      C1311   1.411       .  A
C1311      C1312   1.406       .  A
C1311      C1318   1.506       .  S
C1312      C1313   1.405       .  A
C1312      H1317   1.084       .  S
C1313      C1314   1.417       .  A
C1314      C1315   1.509       .  S
C1315      H1319   1.111       .  S
C1315      H1320   1.108       .  S
C1315      H1321   1.110       .  S
C1318      H1322   1.111       .  S
C1318      H1323   1.110       .  S
C1318      H1324   1.111       .  S
C1325      C1326   1.397       .  A
C1325      C1330   1.398       .  A
C1325      H1332   1.076       .  S
C1326      C1327   1.411       .  A
C1327      C1328   1.409       .  A
C1327      C1334   1.506       .  S
C1328      C1329   1.409       .  A
C1328      H1333   1.084       .  S
C1329      C1330   1.415       .  A
C1330      C1331   1.509       .  S
C1331      H1335   1.110       .  S
C1331      H1336   1.110       .  S
C1331      H1337   1.109       .  S
C1334      H1338   1.110       .  S
C1334      H1339   1.110       .  S
C1334      H1340   1.111       .  S
C1341      C1342   1.405       .  A
C1341      C1346   1.402       .  A
C1341      H1348   1.084       .  S
C1342      C1343   1.418       .  A
C1343      C1344   1.406       .  A
C1343      C1350   1.508   1_545  S
C1344      C1345   1.403       .  A
C1344      H1349   1.084   1_545  S
C1345      C1346   1.414       .  A
C1346      C1347   1.508       .  S
C1347      H1351   1.108       .  S
C1347      H1352   1.110       .  S
C1347      H1353   1.109       .  S
C1350      H1354   1.111       .  S
C1350      H1355   1.109   1_565  S
C1350      H1356   1.111       .  S
C1357      C1358   1.406       .  A
C1357      C1362   1.398       .  A
C1357      H1364   1.084       .  S
C1358      C1359   1.414       .  A
C1359      C1360   1.412       .  A
C1359      C1366   1.505       .  S
C1360      C1361   1.405       .  A
C1360      H1365   1.084       .  S
C1361      C1362   1.410       .  A
C1362      C1363   1.509       .  S
C1363      H1367   1.111       .  S
C1363      H1368   1.109       .  S
C1363      H1369   1.110       .  S
C1366      H1370   1.110       .  S
C1366      H1371   1.110       .  S
C1366      H1372   1.111       .  S
C1373      C1374   1.403       .  A
C1373      C1378   1.408       .  A
C1373      H1380   1.084       .  S
C1374      C1375   1.411       .  A
C1375      C1376   1.402       .  A
C1375      C1382   1.507       .  S
C1376      C1377   1.403       .  A
C1376      H1381   1.084       .  S
C1377      C1378   1.414       .  A
C1378      C1379   1.505       .  S
C1379      H1383   1.111       .  S
C1379      H1384   1.107       .  S
C1379      H1385   1.111       .  S
C1382      H1386   1.110       .  S
C1382      H1387   1.107       .  S
C1382      H1388   1.111       .  S
C1389      C1390   1.404       .  A
C1389      C1394   1.410       .  A
C1389      H1396   1.084       .  S
C1390      C1391   1.416       .  A
C1391      C1392   1.402       .  A
C1391      C1398   1.510       .  S
C1392      C1393   1.404       .  A
C1392      H1397   1.084       .  S
C1393      C1394   1.419       .  A
C1394      C1395   1.507       .  S
C1395      H1399   1.111       .  S
C1395      H1400   1.110       .  S
C1395      H1401   1.110       .  S
C1398      H1402   1.108       .  S
C1398      H1403   1.110       .  S
C1398      H1404   1.111       .  S
C1405      C1406   1.406       .  A
C1405      C1410   1.397       .  A
C1405      H1412   1.081       .  S
C1406      C1407   1.422       .  A
C1407      C1408   1.410       .  A
C1407      C1414   1.506       .  S
C1408      C1409   1.404       .  A
C1408      H1413   1.084       .  S
C1409      C1410   1.417       .  A
C1410      C1411   1.512       .  S
C1411      H1415   1.111       .  S
C1411      H1416   1.111       .  S
C1411      H1417   1.109       .  S
C1414      H1418   1.110       .  S
C1414      H1419   1.111       .  S
C1414      H1420   1.110       .  S
C1421      C1422   1.405       .  A
C1421      C1426   1.402       .  A
C1421      H1428   1.083       .  S
C1422      C1423   1.416       .  A
C1423      C1424   1.411       .  A
C1423      C1430   1.506       .  S
C1424      C1425   1.405       .  A
C1424      H1429   1.084       .  S
C1425      C1426   1.416       .  A
C1426      C1427   1.511       .  S
C1427      H1431   1.111       .  S
C1427      H1432   1.109       .  S
C1427      H1433   1.110       .  S
C1430      H1434   1.110       .  S
C1430      H1435   1.110       .  S
C1430      H1436   1.111       .  S
C1437      C1438   1.409       .  A
C1437      C1442   1.411       .  A
C1437      H1444   1.084       .  S
C1438      C1439   1.412       .  A
C1439      C1440   1.396       .  A
C1439      C1446   1.505       .  S
C1440      C1441   1.401       .  A
C1440      H1445   1.085       .  S
C1441      C1442   1.413       .  A
C1442      C1443   1.505       .  S
C1443      H1447   1.111       .  S
C1443      H1448   1.110       .  S
C1443      H1449   1.110       .  S
C1446      H1450   1.109       .  S
C1446      H1451   1.110       .  S
C1446      H1452   1.110       .  S
C1453      C1454   1.397       .  A
C1453      C1458   1.407       .  A
C1453      H1460   1.083       .  S
C1454      C1455   1.408   1_655  A
C1455      C1456   1.406       .  A
C1455      C1462   1.508       .  S
C1456      C1457   1.414   1_455  A
C1456      H1461   1.083       .  S
C1457      C1458   1.427       .  A
C1458      C1459   1.508       .  S
C1459      H1463   1.111       .  S
C1459      H1464   1.110       .  S
C1459      H1465   1.110       .  S
C1462      H1466   1.111       .  S
C1462      H1467   1.111       .  S
C1462      H1468   1.111       .  S
C1469      C1470   1.404       .  A
C1469      C1474   1.400       .  A
C1469      H1476   1.084       .  S
C1470      C1471   1.418       .  A
C1471      C1472   1.408       .  A
C1471      C1478   1.507       .  S
C1472      C1473   1.403       .  A
C1472      H1477   1.084       .  S
C1473      C1474   1.411       .  A
C1474      C1475   1.508       .  S
C1475      H1479   1.111       .  S
C1475      H1480   1.107       .  S
C1475      H1481   1.110       .  S
C1478      H1482   1.110       .  S
C1478      H1483   1.110       .  S
C1478      H1484   1.111       .  S
C1485      C1486   1.407       .  A
C1485      C1490   1.411       .  A
C1485      H1492   1.084       .  S
C1486      C1487   1.416       .  A
C1487      C1488   1.400       .  A
C1487      C1494   1.509       .  S
C1488      C1489   1.400       .  A
C1488      H1493   1.079       .  S
C1489      C1490   1.416       .  A
C1490      C1491   1.506       .  S
C1491      H1495   1.111       .  S
C1491      H1496   1.110       .  S
C1491      H1497   1.110       .  S
C1494      H1498   1.108       .  S
C1494      H1499   1.110       .  S
C1494      H1500   1.110       .  S
C1501      C1502   1.404       .  A
C1501      C1506   1.403       .  A
C1501      H1508   1.084       .  S
C1502      C1503   1.416       .  A
C1503      C1504   1.412       .  A
C1503      C1510   1.505       .  S
C1504      C1505   1.404       .  A
C1504      H1509   1.084       .  S
C1505      C1506   1.409       .  A
C1506      C1507   1.503       .  S
C1507      H1511   1.111       .  S
C1507      H1512   1.110       .  S
C1507      H1513   1.105       .  S
C1510      H1514   1.110   1_565  S
C1510      H1515   1.110       .  S
C1510      H1516   1.111       .  S
C1517      C1518   1.407       .  A
C1517      C1522   1.403       .  A
C1517      H1524   1.082       .  S
C1518      C1519   1.422       .  A
C1519      C1520   1.412       .  A
C1519      C1526   1.507       .  S
C1520      C1521   1.408       .  A
C1520      H1525   1.083       .  S
C1521      C1522   1.428       .  A
C1522      C1523   1.513       .  S
C1523      H1527   1.111       .  S
C1523      H1528   1.110       .  S
C1523      H1529   1.110       .  S
C1526      H1530   1.110       .  S
C1526      H1531   1.110       .  S
C1526      H1532   1.111       .  S
C1533      C1534   1.403       .  A
C1533      C1538   1.400       .  A
C1533      H1540   1.084       .  S
C1534      C1535   1.415       .  A
C1535      C1536   1.407       .  A
C1535      C1542   1.507   1_545  S
C1536      C1537   1.406       .  A
C1536      H1541   1.084   1_545  S
C1537      C1538   1.416       .  A
C1538      C1539   1.508       .  S
C1539      H1543   1.111       .  S
C1539      H1544   1.108       .  S
C1539      H1545   1.109       .  S
C1542      H1546   1.110       .  S
C1542      H1547   1.110       .  S
C1542      H1548   1.111       .  S
C1549      C1550   1.405       .  A
C1549      C1554   1.407       .  A
C1549      H1556   1.084       .  S
C1550      C1551   1.418       .  A
C1551      C1552   1.403       .  A
C1551      C1558   1.507       .  S
C1552      C1553   1.401       .  A
C1552      H1557   1.085       .  S
C1553      C1554   1.412       .  A
C1554      C1555   1.506       .  S
C1555      H1559   1.111       .  S
C1555      H1560   1.111       .  S
C1555      H1561   1.110       .  S
C1558      H1562   1.106       .  S
C1558      H1563   1.110       .  S
C1558      H1564   1.111       .  S
C1565      C1566   1.405       .  A
C1565      C1570   1.402       .  A
C1565      H1572   1.084       .  S
C1566      C1567   1.417       .  A
C1567      C1568   1.410       .  A
C1567      C1574   1.506       .  S
C1568      C1569   1.405       .  A
C1568      H1573   1.084       .  S
C1569      C1570   1.416       .  A
C1570      C1571   1.511       .  S
C1571      H1575   1.111       .  S
C1571      H1576   1.109       .  S
C1571      H1577   1.110       .  S
C1574      H1578   1.110       .  S
C1574      H1579   1.110       .  S
C1574      H1580   1.111       .  S
C1581      C1582   1.404   1_455  A
C1581      C1586   1.402       .  A
C1581      H1588   1.081       .  S
C1582      C1583   1.422       .  A
C1583      C1584   1.409       .  A
C1583      C1590   1.508       .  S
C1584      C1585   1.403       .  A
C1584      H1589   1.084       .  S
C1585      C1586   1.414   1_655  A
C1586      C1587   1.510       .  S
C1587      H1591   1.111       .  S
C1587      H1592   1.110       .  S
C1587      H1593   1.109       .  S
C1590      H1594   1.110       .  S
C1590      H1595   1.110       .  S
C1590      H1596   1.111       .  S
C1597      C1598   1.400       .  A
C1597      C1602   1.401       .  A
C1597      H1604   1.084       .  S
C1598      C1599   1.415       .  A
C1599      C1600   1.399       .  A
C1599      C1606   1.509       .  S
C1600      C1601   1.400       .  A
C1600      H1605   1.085       .  S
C1601      C1602   1.414       .  A
C1602      C1603   1.507       .  S
C1603      H1607   1.111       .  S
C1603      H1608   1.111       .  S
C1603      H1609   1.109       .  S
C1606      H1610   1.109       .  S
C1606      H1611   1.110       .  S
C1606      H1612   1.109       .  S
C1613      C1614   1.404       .  A
C1613      C1618   1.403       .  A
C1613      H1620   1.084       .  S
C1614      C1615   1.414       .  A
C1615      C1616   1.396       .  A
C1615      C1622   1.509       .  S
C1616      C1617   1.400       .  A
C1616      H1621   1.085       .  S
C1617      C1618   1.412       .  A
C1618      C1619   1.506       .  S
C1619      H1623   1.111       .  S
C1619      H1624   1.110       .  S
C1619      H1625   1.110       .  S
C1622      H1626   1.108       .  S
C1622      H1627   1.110       .  S
C1622      H1628   1.110       .  S
C1629      C1630   1.409       .  A
C1629      C1634   1.393       .  A
C1629      H1636   1.082       .  S
C1630      C1631   1.421       .  A
C1631      C1632   1.399       .  A
C1631      C1638   1.510       .  S
C1632      C1633   1.398       .  A
C1632      H1637   1.085       .  S
C1633      C1634   1.406       .  A
C1634      C1635   1.509       .  S
C1635      H1639   1.111       .  S
C1635      H1640   1.107       .  S
C1635      H1641   1.111       .  S
C1638      H1642   1.111   1_545  S
C1638      H1643   1.110       .  S
C1638      H1644   1.111       .  S
C1645      C1646   1.403       .  A
C1645      C1650   1.401       .  A
C1645      H1652   1.084       .  S
C1646      C1647   1.413       .  A
C1647      C1648   1.404       .  A
C1647      C1654   1.503       .  S
C1648      C1649   1.402       .  A
C1648      H1653   1.084       .  S
C1649      C1650   1.412       .  A
C1650      C1651   1.509       .  S
C1651      H1655   1.111       .  S
C1651      H1656   1.109       .  S
C1651      H1657   1.111       .  S
C1654      H1658   1.110       .  S
C1654      H1659   1.105       .  S
C1654      H1660   1.111       .  S
C1661      C1662   1.407       .  A
C1661      C1666   1.401       .  A
C1661      H1668   1.084       .  S
C1662      C1663   1.422       .  A
C1663      C1664   1.406       .  A
C1663      C1670   1.503       .  S
C1664      C1665   1.398       .  A
C1664      H1669   1.085       .  S
C1665      C1666   1.411       .  A
C1666      C1667   1.510       .  S
C1667      H1671   1.111       .  S
C1667      H1672   1.110       .  S
C1667      H1673   1.109       .  S
C1670      H1674   1.110   1_455  S
C1670      H1675   1.109       .  S
C1670      H1676   1.111       .  S
C1677      C1678   1.403   1_455  A
C1677      C1682   1.409       .  A
C1677      H1684   1.084       .  S
C1678      C1679   1.414       .  A
C1679      C1680   1.404       .  A
C1679      C1686   1.508       .  S
C1680      C1681   1.406       .  A
C1680      H1685   1.084       .  S
C1681      C1682   1.417   1_655  A
C1682      C1683   1.504       .  S
C1683      H1687   1.111       .  S
C1683      H1688   1.109       .  S
C1683      H1689   1.111       .  S
C1686      H1690   1.109       .  S
C1686      H1691   1.110       .  S
C1686      H1692   1.108       .  S
C1693      C1694   1.402       .  A
C1693      C1698   1.400       .  A
C1693      H1700   1.085       .  S
C1694      C1695   1.414       .  A
C1695      C1696   1.410       .  A
C1695      C1702   1.506       .  S
C1696      C1697   1.407       .  A
C1696      H1701   1.084       .  S
C1697      C1698   1.415       .  A
C1698      C1699   1.509       .  S
C1699      H1703   1.111       .  S
C1699      H1704   1.108       .  S
C1699      H1705   1.110       .  S
C1702      H1706   1.110       .  S
C1702      H1707   1.110       .  S
C1702      H1708   1.111       .  S
C1709      C1710   1.404       .  A
C1709      C1714   1.408       .  A
C1709      H1716   1.084       .  S
C1710      C1711   1.415       .  A
C1711      C1712   1.405       .  A
C1711      C1718   1.507       .  S
C1712      C1713   1.404       .  A
C1712      H1717   1.085       .  S
C1713      C1714   1.413       .  A
C1714      C1715   1.506       .  S
C1715      H1719   1.111       .  S
C1715      H1720   1.110       .  S
C1715      H1721   1.110       .  S
C1718      H1722   1.110       .  S
C1718      H1723   1.107       .  S
C1718      H1724   1.109       .  S
C1725      C1726   1.405   1_455  A
C1725      C1730   1.402       .  A
C1725      H1732   1.083       .  S
C1726      C1727   1.425       .  A
C1727      C1728   1.411       .  A
C1727      C1734   1.508       .  S
C1728      C1729   1.401       .  A
C1728      H1733   1.084       .  S
C1729      C1730   1.413   1_655  A
C1730      C1731   1.507       .  S
C1731      H1735   1.111       .  S
C1731      H1736   1.105       .  S
C1731      H1737   1.110       .  S
C1734      H1738   1.109       .  S
C1734      H1739   1.111       .  S
C1734      H1740   1.111       .  S
C1741      C1742   1.403       .  A
C1741      C1746   1.409       .  A
C1741      H1748   1.084       .  S
C1742      C1743   1.414       .  A
C1743      C1744   1.407       .  A
C1743      C1750   1.508       .  S
C1744      C1745   1.402       .  A
C1744      H1749   1.084       .  S
C1745      C1746   1.414       .  A
C1746      C1747   1.505       .  S
C1747      H1751   1.111       .  S
C1747      H1752   1.109       .  S
C1747      H1753   1.110       .  S
C1750      H1754   1.110       .  S
C1750      H1755   1.110       .  S
C1750      H1756   1.111       .  S
C1757      C1758   1.407       .  A
C1757      C1762   1.409       .  A
C1757      H1764   1.084       .  S
C1758      C1759   1.415       .  A
C1759      C1760   1.401       .  A
C1759      C1766   1.510       .  S
C1760      C1761   1.407       .  A
C1760      H1765   1.084       .  S
C1761      C1762   1.415       .  A
C1762      C1763   1.506       .  S
C1763      H1767   1.111       .  S
C1763      H1768   1.109       .  S
C1763      H1769   1.111       .  S
C1766      H1770   1.110       .  S
C1766      H1771   1.109       .  S
C1766      H1772   1.111       .  S
C1773      C1774   1.409       .  A
C1773      C1778   1.404       .  A
C1773      H1780   1.084       .  S
C1774      C1775   1.416       .  A
C1775      C1776   1.405       .  A
C1775      C1782   1.506   1_545  S
C1776      C1777   1.403       .  A
C1776      H1781   1.084   1_545  S
C1777      C1778   1.412       .  A
C1778      C1779   1.509       .  S
C1779      H1783   1.111       .  S
C1779      H1784   1.111       .  S
C1779      H1785   1.110       .  S
C1782      H1786   1.110       .  S
C1782      H1787   1.110       .  S
C1782      H1788   1.107       .  S
C1789      C1790   1.405       .  A
C1789      C1794   1.403       .  A
C1789      H1796   1.084       .  S
C1790      C1791   1.414       .  A
C1791      C1792   1.400       .  A
C1791      C1798   1.510       .  S
C1792      C1793   1.405       .  A
C1792      H1797   1.084       .  S
C1793      C1794   1.414       .  A
C1794      C1795   1.507       .  S
C1795      H1799   1.111       .  S
C1795      H1800   1.110       .  S
C1795      H1801   1.110       .  S
C1798      H1802   1.111       .  S
C1798      H1803   1.109       .  S
C1798      H1804   1.111       .  S
C1805      C1806   1.408       .  A
C1805      C1810   1.410       .  A
C1805      H1812   1.084       .  S
C1806      C1807   1.416       .  A
C1807      C1808   1.399       .  A
C1807      C1814   1.508       .  S
C1808      C1809   1.401       .  A
C1808      H1813   1.085       .  S
C1809      C1810   1.413       .  A
C1810      C1811   1.506       .  S
C1811      H1815   1.111       .  S
C1811      H1816   1.110       .  S
C1811      H1817   1.110       .  S
C1814      H1818   1.110       .  S
C1814      H1819   1.109       .  S
C1814      H1820   1.109       .  S
C1821      C1822   1.403   1_554  A
C1821      C1826   1.403       .  A
C1821      H1828   1.084       .  S
C1822      C1823   1.413       .  A
C1823      C1824   1.403       .  A
C1823      C1830   1.507       .  S
C1824      C1825   1.403   1_556  A
C1824      H1829   1.081       .  S
C1825      C1826   1.417       .  A
C1826      C1827   1.509       .  S
C1827      H1831   1.111       .  S
C1827      H1832   1.111       .  S
C1827      H1833   1.109       .  S
C1830      H1834   1.110       .  S
C1830      H1835   1.109       .  S
C1830      H1836   1.111       .  S
C1837      C1838   1.401       .  A
C1837      C1842   1.402       .  A
C1837      H1844   1.085       .  S
C1838      C1839   1.414       .  A
C1839      C1840   1.413       .  A
C1839      C1846   1.505       .  S
C1840      C1841   1.409       .  A
C1840      H1845   1.084       .  S
C1841      C1842   1.421       .  A
C1842      C1843   1.507       .  S
C1843      H1847   1.111       .  S
C1843      H1848   1.107       .  S
C1843      H1849   1.111       .  S
C1846      H1850   1.110       .  S
C1846      H1851   1.110       .  S
C1846      H1852   1.110       .  S
C1853      C1854   1.405       .  A
C1853      C1858   1.409       .  A
C1853      H1860   1.084       .  S
C1854      C1855   1.415       .  A
C1855      C1856   1.405       .  A
C1855      C1862   1.507       .  S
C1856      C1857   1.401       .  A
C1856      H1861   1.084       .  S
C1857      C1858   1.416       .  A
C1858      C1859   1.508       .  S
C1859      H1863   1.110       .  S
C1859      H1864   1.107       .  S
C1859      H1865   1.110       .  S
C1862      H1866   1.111       .  S
C1862      H1867   1.109       .  S
C1862      H1868   1.111       .  S
C1869      C1870   1.402   1_556  A
C1869      C1874   1.408       .  A
C1869      H1876   1.084       .  S
C1870      C1871   1.412       .  A
C1871      C1872   1.406       .  A
C1871      C1878   1.509       .  S
C1872      C1873   1.409       .  A
C1872      H1877   1.081       .  S
C1873      C1874   1.420   1_554  A
C1874      C1875   1.507       .  S
C1875      H1879   1.111       .  S
C1875      H1880   1.110       .  S
C1875      H1881   1.109       .  S
C1878      H1882   1.111       .  S
C1878      H1883   1.109       .  S
C1878      H1884   1.111       .  S
C1885      C1886   1.403       .  A
C1885      C1890   1.399       .  A
C1885      H1892   1.085       .  S
C1886      C1887   1.411       .  A
C1887      C1888   1.405       .  A
C1887      C1894   1.506       .  S
C1888      C1889   1.405       .  A
C1888      H1893   1.084       .  S
C1889      C1890   1.410       .  A
C1890      C1891   1.502       .  S
C1891      H1895   1.111       .  S
C1891      H1896   1.109       .  S
C1891      H1897   1.110       .  S
C1894      H1898   1.110       .  S
C1894      H1899   1.110       .  S
C1894      H1900   1.111       .  S
C1901      C1902   1.407       .  A
C1901      C1906   1.402       .  A
C1901      H1908   1.084       .  S
C1902      C1903   1.420       .  A
C1903      C1904   1.406       .  A
C1903      C1910   1.507       .  S
C1904      C1905   1.401       .  A
C1904      H1909   1.084       .  S
C1905      C1906   1.412       .  A
C1906      C1907   1.509       .  S
C1907      H1911   1.111       .  S
C1907      H1912   1.109       .  S
C1907      H1913   1.110       .  S
C1910      H1914   1.110       .  S
C1910      H1915   1.109       .  S
C1910      H1916   1.111       .  S
C1917      C1918   1.406   1_556  A
C1917      C1922   1.404       .  A
C1917      H1924   1.084       .  S
C1918      C1919   1.417       .  A
C1919      C1920   1.398       .  A
C1919      C1926   1.510       .  S
C1920      C1921   1.398       .  A
C1920      H1925   1.085       .  S
C1921      C1922   1.409   1_554  A
C1922      C1923   1.508       .  S
C1923      H1927   1.111       .  S
C1923      H1928   1.111       .  S
C1923      H1929   1.110       .  S
C1926      H1930   1.110       .  S
C1926      H1931   1.109       .  S
C1926      H1932   1.111       .  S
