geometry optimzed in LAMMPS
_audit_creation_date              2020-12-01 
_audit_creation_method            'lammps2cif' 
_symmetry_space_group_name_H-M    'P1' 
_symmetry_Int_Tables_number       1 
_symmetry_cell_setting            triclinic 
loop_ 
_symmetry_equiv_pos_as_xyz 
  x,y,z 
_cell_length_a                    25.28366509 
_cell_length_b                    25.17432919081243 
_cell_length_c                    25.103223579352434 
_cell_angle_alpha                 89.99711703917441 
_cell_angle_beta                  89.70995480718436 
_cell_angle_gamma                 89.865511684796 
loop_ 
_atom_site_label 
_atom_site_type_symbol 
_atom_site_fract_x 
_atom_site_fract_y 
_atom_site_fract_z 
_atom_site_charge 
C1          C  0.73281377  0.33102809  0.27081123     0.80800
N2          N  0.75694252  0.30815644  0.31358300    -0.77500
C3          C  0.73727128  0.26272071  0.33569975     0.83200
N4          N  0.69313595  0.23997563  0.31396732    -0.77400
C5          C  0.66884039  0.26282665  0.27096985     0.83300
N6          N  0.68912755  0.30806872  0.24971582    -0.79200
C7          C  0.73600168  0.85283964  0.26616545     0.80800
N8          N  0.69095261  0.87537105  0.24652912    -0.77500
C9          C  0.66821314  0.91777650  0.27167149     0.83200
N10         N  0.69092529  0.93792553  0.31616248    -0.77400
C11         C  0.73576837  0.91616354  0.33626180     0.83300
N12         N  0.75843105  0.87356412  0.31109326    -0.79200
C13         C  0.14402375  0.91793216  0.27428121     0.80800
N14         N  0.12407159  0.87315589  0.25077434    -0.77500
C15         C  0.08122445  0.84780976  0.27254667     0.83200
N16         N  0.05840862  0.86766065  0.31741776    -0.77400
C17         C  0.07770577  0.91198044  0.34110238     0.83300
N18         N  0.12039742  0.93716171  0.31937368    -0.79200
C19         C  0.14826361  0.91384533  0.92813592     0.80800
N20         N  0.12172271  0.93648574  0.88624973    -0.77500
C21         C  0.07708759  0.91296103  0.86615099     0.83200
N22         N  0.05923337  0.86698142  0.88874914    -0.77400
C23         C  0.08544750  0.84429629  0.93038059     0.83300
N24         N  0.12960086  0.86799831  0.94976986    -0.79200
C25         C  0.73766721  0.26398466  0.85615468     0.80800
N26         N  0.75771599  0.30817763  0.87950617    -0.77500
C27         C  0.73606621  0.32798291  0.92500482     0.83200
N28         N  0.69358705  0.30270831  0.94764838    -0.77400
C29         C  0.67278964  0.25812352  0.92447473     0.83300
N30         N  0.69540159  0.23886659  0.87885020    -0.79200
C31         C  0.73431325  0.92168434  0.86456585     0.80800
N32         N  0.69052879  0.93741278  0.89245069    -0.77500
C33         C  0.67479965  0.91066578  0.93707812     0.83200
N34         N  0.70350787  0.86791388  0.95395352    -0.77400
C35         C  0.74744079  0.85158997  0.92657071     0.83300
N36         N  0.76271256  0.87882162  0.88197056    -0.79200
C37         C  0.14851511  0.25035420  0.92800296     0.80800
N38         N  0.12504499  0.22866192  0.88461861    -0.77500
C39         C  0.07963614  0.24953936  0.86477884     0.83200
N40         N  0.05714446  0.29273807  0.88917945    -0.77400
C41         C  0.08033676  0.31504851  0.93298669     0.83300
N42         N  0.12604049  0.29346904  0.95218508    -0.79200
C43         C  0.14699165  0.25920190  0.26442272     0.79600
N44         N  0.13013955  0.23278578  0.30881757    -0.77500
C45         C  0.08647014  0.24964276  0.33617955     0.83200
N46         N  0.05944888  0.29319702  0.31853623    -0.77400
C47         C  0.07584935  0.31992756  0.27413973     0.83300
N48         N  0.11953763  0.30254769  0.24714931    -0.79200
O49         O  0.85032258  0.15024551  0.44383090    -0.79500
O50         O  0.84865351  0.15574865  0.74964750    -0.81100
O51         O  0.75950133  0.17595548  0.60275119    -0.78100
O52         O  0.90829272  0.25844590  0.59722299    -0.76500
O53         O  0.99644068  0.23659506  0.59754109    -0.78300
O54         O  0.73384392  0.08873452  0.59877416    -0.79200
O55         O  0.81984076  0.21233209  0.68425253    -0.80600
O56         O  0.81864556  0.20771659  0.50716532    -0.80800
Eu57       Eu  0.85288582  0.17852326  0.59667753     2.39200
O58         O  0.92472213  0.16068408  0.65280832    -0.88400
O59         O  0.83372155  0.10406230  0.54301343    -0.92000
C60         C  0.82180365  0.19051720  0.45842256     1.02700
C61         C  0.82170825  0.19612004  0.73322848     1.02600
C62         C  0.72463878  0.13933433  0.60219330     1.02500
C63         C  0.95807036  0.26973014  0.59706170     1.00400
H64         H  0.80287431  0.11109855  0.67320791     0.30100
O65         O  0.83398717  0.10475288  0.65163645    -1.00700
H66         H  0.93254906  0.19045387  0.52040885     0.30100
O67         O  0.92627682  0.15979091  0.54274991    -1.03300
O68         O  0.96147947  0.02140583  0.75613990    -0.80500
O69         O  0.96658142  0.01776961  0.44897986    -0.80000
O70         O  0.77996261  0.00235751  0.68832929    -0.78500
O71         O  0.02907969  0.17409386  0.68903816    -0.81800
O72         O  0.03394330  0.17067199  0.50996830    -0.79700
O73         O  0.78599683  0.99528543  0.50965584    -0.78300
O74         O  0.90770352  0.91383042  0.61110398    -0.79800
O75         O  0.05778732  0.99722357  0.59868234    -0.81800
O76         O  0.81994315  0.93705242  0.61307870    -0.78500
O77         O  0.07793495  0.08603629  0.59583036    -0.81200
O78         O  0.83748778  0.03227567  0.75189430    -0.76900
O79         O  0.84361622  0.02578849  0.44579298    -0.77000
O80         O  0.97840002  0.13846928  0.44567392    -0.76600
O81         O  0.97033473  0.14508519  0.75243965    -0.80100
O82         O  0.99517640  0.96432554  0.69353336    -0.79500
O83         O  0.99577232  0.96131528  0.51438166    -0.77800
Eu84       Eu  0.90581244  0.08747159  0.70850842     2.39800
Eu85       Eu  0.90825867  0.08466608  0.48967208     2.39600
Eu86       Eu  0.81419772  0.03118032  0.59862017     2.38400
Eu87       Eu  0.99903019  0.14179576  0.59913374     2.39900
Eu88       Eu  0.96288234  0.99368292  0.60307483     2.39800
O89         O  0.97962271  0.06711063  0.54713840    -0.92300
O90         O  0.88765794  0.01402710  0.65415297    -0.91200
C91         C  0.99058221  0.98133764  0.74228227     1.02900
C92         C  0.99387667  0.97772780  0.46539277     1.01600
C93         C  0.79644776  0.00573001  0.73718216     1.01000
C94         C  0.01124732  0.17180515  0.73766840     1.03000
C95         C  0.01892725  0.16581950  0.46081649     1.01900
C96         C  0.80365773  0.99761378  0.46099626     1.00800
C97         C  0.85789543  0.90331768  0.61585792     1.00900
C98         C  0.08998417  0.03627101  0.59544570     1.03500
H99         H  0.88518561  0.97938303  0.52595241     0.30800
O100        O  0.89043149  0.01128208  0.54656592    -1.04400
H101        H  0.01189606  0.06399412  0.67748049     0.32900
O102        O  0.98109078  0.06935196  0.65545178    -1.07000
O103        O  0.56213271  0.15245642  0.15977170    -0.79500
O104        O  0.25816354  0.15268315  0.15446930    -0.81100
O105        O  0.40898108  0.26196379  0.10234208    -0.78100
O106        O  0.39285026  0.17304723  0.24949984    -0.76500
O107        O  0.39417969  0.08539670  0.27425822    -0.78300
O108        O  0.40796264  0.23681371  0.01468766    -0.79200
O109        O  0.32047675  0.21139849  0.18461656    -0.80600
O110        O  0.49802410  0.20892970  0.19140315    -0.80800
Eu111      Eu  0.41001187  0.17911479  0.15613628     2.39200
O112        O  0.35548090  0.10450054  0.17191403    -0.88400
O113        O  0.46550909  0.16129455  0.08295393    -0.92000
C114        C  0.54665066  0.19236577  0.18821174     1.02700
C115        C  0.27230052  0.19410965  0.18108028     1.02600
C116        C  0.40674114  0.27163346  0.05171606     1.02500
C117        C  0.38850603  0.13571984  0.28381021     1.00400
H118        H  0.33568216  0.19010288  0.07684993     0.30100
O119        O  0.35737501  0.15911177  0.08254177    -1.00700
H120        H  0.48286973  0.10904372  0.20854142     0.30100
O121        O  0.46253094  0.10350611  0.17665988    -1.03300
O122        O  0.25886931  0.02150551  0.03795219    -0.80500
O123        O  0.56307554  0.01662622  0.04827502    -0.80000
O124        O  0.32374911  0.17472286  0.97639523    -0.78500
O125        O  0.31726510  0.99641443  0.22235115    -0.81800
O126        O  0.49474562  0.99767033  0.22492431    -0.79700
O127        O  0.50139904  0.17803597  0.97990645    -0.78300
O128        O  0.42125888  0.00112434  0.94602801    -0.79800
O129        O  0.41520928  0.91478110  0.09809692    -0.81800
O130        O  0.41960586  0.09019052  0.92655429    -0.78500
O131        O  0.41456822  0.93496669  0.18740093    -0.81200
O132        O  0.25932663  0.14298224  0.03259173    -0.76900
O133        O  0.56427669  0.14397299  0.03576496    -0.77000
O134        O  0.55896072  0.02702113  0.16721104    -0.76600
O135        O  0.25525057  0.02962223  0.16506573    -0.80100
O136        O  0.32280273  0.96549223  0.00540117    -0.79500
O137        O  0.50046144  0.96015307  0.01467825    -0.77800
Eu138      Eu  0.30202016  0.08524299  0.09831418     2.39800
Eu139      Eu  0.51844057  0.08663688  0.10195090     2.39600
Eu140      Eu  0.41241728  0.14279353  0.00833081     2.38400
Eu141      Eu  0.40653871  0.03000925  0.19300325     2.39900
Eu142      Eu  0.41124866  0.99460535  0.04184883     2.39800
O143        O  0.46107558  0.01498652  0.11789216    -0.92300
O144        O  0.35736340  0.06895757  0.02387522    -0.91200
C145        C  0.27415591  0.98236272  0.00843056     1.02900
C146        C  0.54898128  0.97580091  0.02049830     1.01600
C147        C  0.27503877  0.17126893  0.99278755     1.01000
C148        C  0.26896796  0.00096185  0.20544485     1.03000
C149        C  0.54313477  0.99951491  0.20747004     1.01900
C150        C  0.54991761  0.17357665  0.99624351     1.00800
C151        C  0.42328539  0.04065744  0.91379928     1.00900
C152        C  0.41695174  0.90261512  0.14806921     1.03500
H153        H  0.48934880  0.06375325  0.99663535     0.30800
O154        O  0.46610484  0.06926740  0.02678125    -1.04400
H155        H  0.33394700  0.97934566  0.12130410     0.32900
O156        O  0.35551181  0.01047413  0.11609963    -1.07000
O157        O  0.84186588  0.43707409  0.16123439    -0.79500
O158        O  0.84818528  0.74178705  0.15616716    -0.81100
O159        O  0.83233749  0.57920462  0.25336449    -0.78100
O160        O  0.73782002  0.59775706  0.11010567    -0.76500
O161        O  0.76044344  0.59798493  0.02172528    -0.78300
O162        O  0.92016676  0.58084753  0.27548300    -0.79200
O163        O  0.79252864  0.67953987  0.19211803    -0.80600
O164        O  0.78670473  0.50293457  0.19172260    -0.80800
Eu165      Eu  0.82153362  0.58991163  0.15953774     2.39200
O166        O  0.83962134  0.64207238  0.08446989    -0.88400
O167        O  0.89478174  0.53376460  0.17398240    -0.92000
C168        C  0.80227900  0.45391309  0.18911387     1.02700
C169        C  0.80852383  0.72809406  0.18580274     1.02600
C170        C  0.87037465  0.57732027  0.28671926     1.02500
C171        C  0.72701276  0.60161539  0.05999015     1.00400
H172        H  0.89343606  0.66323260  0.20756488     0.30100
O173        O  0.89807871  0.64134255  0.17634836    -1.00700
H174        H  0.80307882  0.51364371  0.08136872     0.30100
O175        O  0.83515402  0.53373502  0.08592898    -1.03300
O176        O  0.98139732  0.73528110  0.04149045    -0.80500
O177        O  0.97119483  0.42862663  0.04292195    -0.80000
O178        O  0.00559438  0.67312388  0.22089424    -0.78500
O179        O  0.82560758  0.67688525  0.97692156    -0.81800
O180        O  0.81642954  0.49908948  0.97985088    -0.79700
O181        O  0.99911069  0.49400997  0.22347210    -0.78300
O182        O  0.08350391  0.57822787  0.09254332    -0.79800
O183        O  0.99441781  0.58440132  0.94763514    -0.81800
O184        O  0.06569038  0.58046613  0.18225738    -0.78500
O185        O  0.90583613  0.58359172  0.92792547    -0.81200
O186        O  0.97389303  0.73726170  0.16454753    -0.76900
O187        O  0.96307338  0.43091519  0.16868320    -0.77000
O188        O  0.84781249  0.43430813  0.03567950    -0.76600
O189        O  0.85929321  0.74008588  0.03299218    -0.80100
O190        O  0.03528129  0.66943952  0.00863401    -0.79500
O191        O  0.02794453  0.49069637  0.00845296    -0.77800
Eu192      Eu  0.91447394  0.69456894  0.10031870     2.39800
Eu193      Eu  0.90794248  0.47645762  0.10106210     2.39600
Eu194      Eu  0.97080725  0.58425779  0.19156230     2.38400
Eu195      Eu  0.85335912  0.58648430  0.01022845     2.39900
Eu196      Eu  0.00136074  0.58175005  0.04187492     2.39800
O197        O  0.92561117  0.52974122  0.02599800    -0.92300
O198        O  0.98719448  0.63751020  0.11589893    -0.91200
C199        C  0.02033996  0.71869991  0.01246506     1.02900
C200        C  0.01083244  0.44220914  0.01331657     1.01600
C201        C  0.00259589  0.72182913  0.20395747     1.01000
C202        C  0.83112302  0.72579599  0.99265516     1.03000
C203        C  0.81905268  0.45021803  0.99627941     1.01900
C204        C  0.99242066  0.44518896  0.20820930     1.00800
C205        C  0.09693528  0.57770762  0.14201006     1.00900
C206        C  0.95544204  0.58449319  0.91553945     1.03500
H207        H  0.01422060  0.50552570  0.12127630     0.30800
O208        O  0.98404218  0.52851140  0.11647425    -1.04400
H209        H  0.93382601  0.65964420  0.99501884     0.32900
O210        O  0.92826833  0.63824447  0.02648802    -1.07000
N211        N  0.87587121  0.53753015  0.54186407    -0.36000
N212        N  0.95060136  0.56896352  0.61885225    -0.56600
N213        N  0.87672463  0.64505432  0.65496143    -0.36000
N214        N  0.78813900  0.61176370  0.57998358    -0.56600
C215        C  0.90058018  0.49147019  0.55317269     0.27600
C216        C  0.82755058  0.52483784  0.52363033     0.27600
C217        C  0.90370135  0.63275314  0.69929130     0.27600
C218        C  0.82810316  0.66066516  0.67074315     0.27600
C219        C  0.97846602  0.52905040  0.59755791     0.36200
C220        C  0.98068928  0.59060148  0.65666499     0.36200
C221        C  0.77688338  0.60537472  0.52813143     0.36200
C222        C  0.77600572  0.66251632  0.59125379     0.36200
C223        C  0.86712263  0.44915579  0.54152934    -0.21300
C224        C  0.82107532  0.47058850  0.52181817    -0.21300
C225        C  0.87121968  0.64052254  0.74372361    -0.21300
C226        C  0.82342851  0.65895024  0.72534456    -0.21300
C227        C  0.02844908  0.52660778  0.61999547    -0.22400
C228        C  0.03004383  0.56626872  0.65755160    -0.22400
C229        C  0.75475432  0.65108217  0.50692383    -0.22400
C230        C  0.75416753  0.68772703  0.54740108    -0.22400
C231        C  0.95298228  0.48709160  0.57209858    -0.17700
C232        C  0.79487947  0.56164442  0.49902116    -0.17700
C233        C  0.79403855  0.68779110  0.63720960    -0.17700
C234        C  0.95707236  0.61579256  0.70022260    -0.17700
H235        H  0.87524445  0.40715847  0.54568662     0.15200
H236        H  0.78743275  0.44902901  0.50652643     0.15200
H237        H  0.88106435  0.63477987  0.78520347     0.15200
H238        H  0.78997150  0.67169460  0.74920783     0.15200
H239        H  0.05790471  0.49577933  0.61448818     0.13500
H240        H  0.06080585  0.57159895  0.68692221     0.13500
H241        H  0.74399579  0.65829814  0.46586676     0.13500
H242        H  0.74305406  0.72913811  0.54394913     0.13500
H243        H  0.89151164  0.57584418  0.54319937     0.26700
H244        H  0.89132963  0.64619218  0.61602188     0.26700
N245        N  0.43313816  0.23105428  0.56526633    -0.36000
N246        N  0.47298306  0.14356100  0.64288935    -0.56600
N247        N  0.38187859  0.08240446  0.62552172    -0.36000
N248        N  0.34805121  0.15287431  0.54357714    -0.56600
C249        C  0.48574199  0.23853562  0.56913928     0.27600
C250        C  0.41991066  0.24217291  0.51444639     0.27600
C251        C  0.41098647  0.04945447  0.65565432     0.27600
C252        C  0.34519360  0.05296869  0.60113744     0.27600
C253        C  0.49325790  0.19172019  0.65319100     0.36200
C254        C  0.46780567  0.11878187  0.69016787     0.36200
C255        C  0.33474332  0.19939466  0.52102411     0.36200
C256        C  0.30281815  0.12713600  0.55412006     0.36200
C257        C  0.50560988  0.25880688  0.52173939    -0.21300
C258        C  0.46371164  0.26116562  0.48694219    -0.21300
C259        C  0.39312974  0.99776383  0.65003307    -0.21300
C260        C  0.35123341  0.99997250  0.61512104    -0.21300
C261        C  0.50401245  0.19686816  0.70684780    -0.22400
C262        C  0.48679197  0.15079727  0.73076249    -0.22400
C263        C  0.28056068  0.20276791  0.51487052    -0.22400
C264        C  0.25991286  0.15725657  0.53724085    -0.22400
C265        C  0.51607821  0.22204210  0.61292188    -0.17700
C266        C  0.37169568  0.22719247  0.49092593    -0.17700
C267        C  0.30168449  0.07514804  0.57493291    -0.17700
C268        C  0.44486183  0.06807469  0.69542044    -0.17700
H269        H  0.54643327  0.26788500  0.51235746     0.15200
H270        H  0.46583556  0.27202457  0.44525542     0.15200
H271        H  0.40653100  0.96305863  0.67158923     0.15200
H272        H  0.32594311  0.96716893  0.60410506     0.15200
H273        H  0.52330407  0.22986254  0.72628639     0.13500
H274        H  0.48801507  0.14234284  0.77296150     0.13500
H275        H  0.25876179  0.23342197  0.49411653     0.13500
H276        H  0.21844373  0.14690206  0.53896382     0.13500
H277        H  0.40869596  0.21469625  0.59455865     0.26700
H278        H  0.38227235  0.12371789  0.62724509     0.26700
N279        N  0.44486904  0.56048613  0.95987035    -0.36000
N280        N  0.46824748  0.64194762  0.04503354    -0.56600
N281        N  0.38597178  0.60855829  0.11165136    -0.36000
N282        N  0.36413425  0.52215299  0.04289180    -0.56600
C283        C  0.49687720  0.57082101  0.95411452     0.27600
C284        C  0.43864015  0.50826213  0.94995359     0.27600
C285        C  0.41004232  0.64350807  0.14370103     0.27600
C286        C  0.35367845  0.57903169  0.14194195     0.27600
C287        C  0.49191351  0.65544978  0.99915176     0.36200
C288        C  0.46033484  0.68688172  0.07255724     0.36200
C289        C  0.35366691  0.50423505  0.99367250     0.36200
C290        C  0.31735832  0.52878024  0.06757112     0.36200
C291        C  0.52333456  0.52591348  0.93613013    -0.21300
C292        C  0.48619129  0.48615355  0.93312521    -0.21300
C293        C  0.39348734  0.63587739  0.19586145    -0.21300
C294        C  0.35757618  0.59463732  0.19477058    -0.21300
C295        C  0.50175058  0.70942240  0.99807062    -0.22400
C296        C  0.48024341  0.72990372  0.04422541    -0.22400
C297        C  0.29998535  0.49646103  0.98742666    -0.22400
C298        C  0.27650370  0.51329540  0.03418050    -0.22400
C299        C  0.52114632  0.61772741  0.97169053    -0.17700
C300        C  0.39307760  0.47949155  0.96396415    -0.17700
C301        C  0.31290948  0.54880972  0.11986354    -0.17700
C302        C  0.43826700  0.68725247  0.12417142    -0.17700
H303        H  0.56542677  0.52151183  0.92931323     0.15200
H304        H  0.49396923  0.44489281  0.92372317     0.15200
H305        H  0.40339590  0.65987264  0.23014414     0.15200
H306        H  0.33384703  0.58076387  0.22794909     0.15200
H307        H  0.52470788  0.73093374  0.96868457     0.13500
H308        H  0.48124328  0.77116486  0.05609909     0.13500
H309        H  0.28032808  0.47880582  0.95359132     0.13500
H310        H  0.23449707  0.51350064  0.04251264     0.13500
H311        H  0.41608228  0.58639092  0.97479879     0.26700
H312        H  0.38532226  0.61003329  0.07026277     0.26700
C313        C  0.22719413  0.51161287  0.15066795    -0.12800
C314        C  0.26015105  0.55553995  0.14306249     0.09400
C315        C  0.23954508  0.60734265  0.14666785    -0.12800
C316        C  0.18547677  0.61503332  0.15137101    -0.12800
C317        C  0.15228047  0.57096103  0.15287643     0.09400
C318        C  0.17294808  0.51941164  0.15531925    -0.12800
H319        H  0.24281302  0.47160638  0.14778001     0.13400
H320        H  0.26463676  0.64166926  0.14051153     0.13400
H321        H  0.16936796  0.65491280  0.14936988     0.13400
H322        H  0.14688090  0.48531311  0.15633432     0.13400
C323        C  0.66488887  0.64141303  0.99644011    -0.12800
C324        C  0.67298415  0.61083848  0.04269339     0.09400
C325        C  0.63089048  0.58347891  0.06599790    -0.12800
C326        C  0.58180166  0.58422902  0.04124043    -0.12800
C327        C  0.57456473  0.61276365  0.99344329     0.09400
C328        C  0.61582382  0.64246036  0.97199464    -0.12800
H329        H  0.69712872  0.66339374  0.97837859     0.13400
H330        H  0.63656289  0.55974966  0.10153068     0.13400
H331        H  0.54921335  0.56274494  0.05926970     0.13400
H332        H  0.60999394  0.66621241  0.93652562     0.13400
C333        C  0.87080546  0.60769355  0.37973985    -0.12800
C334        C  0.85364468  0.57148864  0.34158263     0.09400
C335        C  0.81384837  0.53454762  0.35397531    -0.12800
C336        C  0.79186334  0.53326424  0.40477797    -0.12800
C337        C  0.80887157  0.56957755  0.44302008     0.09400
C338        C  0.84829419  0.60694431  0.43026567    -0.12800
H339        H  0.90052871  0.63713850  0.37006435     0.13400
H340        H  0.79988619  0.50678406  0.32421705     0.13400
H341        H  0.76264027  0.50340490  0.41467641     0.13400
H342        H  0.86286277  0.63425531  0.46011691     0.13400
C343        C  0.95978731  0.54553990  0.82683082    -0.12800
C344        C  0.96920990  0.58835990  0.86047768     0.09400
C345        C  0.98917681  0.63645538  0.84102063    -0.12800
C346        C  0.99313990  0.64407454  0.78645003    -0.12800
C347        C  0.97802606  0.60299694  0.75243633     0.09400
C348        C  0.96533373  0.55254260  0.77251983    -0.12800
H349        H  0.94518354  0.50812989  0.84231910     0.13400
H350        H  0.99712938  0.66928064  0.86773211     0.13400
H351        H  0.00222154  0.68316652  0.77091881     0.13400
H352        H  0.95301958  0.52091089  0.74606567     0.13400
C353        C  0.36904854  0.33496309  0.98766000    -0.12800
C354        C  0.40152081  0.32576775  0.03217898     0.09400
C355        C  0.43348153  0.36627453  0.05178599    -0.12800
C356        C  0.43339180  0.41545241  0.02657225    -0.12800
C357        C  0.40102506  0.42459088  0.98185773     0.09400
C358        C  0.36859267  0.38422545  0.96277809    -0.12800
H359        H  0.34409976  0.30372582  0.97204032     0.13400
H360        H  0.45922392  0.35951694  0.08548735     0.13400
H361        H  0.45724378  0.44716076  0.04293057     0.13400
H362        H  0.34219203  0.39129089  0.92965939     0.13400
C363        C  0.37625794  0.81553610  0.15668972    -0.12800
C364        C  0.42135335  0.84700795  0.16067974     0.09400
C365        C  0.47139535  0.82398979  0.16694148    -0.12800
C366        C  0.47688152  0.76912051  0.16274053    -0.12800
C367        C  0.43230917  0.73817416  0.15149342     0.09400
C368        C  0.38167088  0.76095555  0.15243620    -0.12800
H369        H  0.33756526  0.83348238  0.15192255     0.13400
H370        H  0.50637636  0.84857837  0.16997020     0.13400
H371        H  0.51609237  0.75168439  0.16179574     0.13400
H372        H  0.34701733  0.73736375  0.14354268     0.13400
C373        C  0.34311261  0.19686086  0.34669739    -0.12800
C374        C  0.37823899  0.15409317  0.33791017     0.09400
C375        C  0.41043126  0.13615596  0.37900779    -0.12800
C376        C  0.40932609  0.16194613  0.42780203    -0.12800
C377        C  0.37561550  0.20577971  0.43644134     0.09400
C378        C  0.34138434  0.22230307  0.39610003    -0.12800
H379        H  0.31802070  0.21123026  0.31489011     0.13400
H380        H  0.43821012  0.10393861  0.37258356     0.13400
H381        H  0.43465861  0.14744677  0.45933361     0.13400
H382        H  0.31389174  0.25472162  0.40277349     0.13400
C383        C  0.38506933  0.02983058  0.82575688    -0.12800
C384        C  0.42988420  0.02924062  0.85777352     0.09400
C385        C  0.48057442  0.02945139  0.83493046    -0.12800
C386        C  0.48620943  0.03588300  0.77998960    -0.12800
C387        C  0.44108036  0.04324605  0.74850907     0.09400
C388        C  0.39056961  0.03686136  0.77128745    -0.12800
H389        H  0.34585834  0.02997466  0.84340660     0.13400
H390        H  0.51542503  0.02924972  0.85988101     0.13400
H391        H  0.52536939  0.04043959  0.76291172     0.13400
H392        H  0.35514976  0.04267759  0.74788436     0.13400
C393        C  0.65927792  0.20093370  0.64085342    -0.12800
C394        C  0.67075257  0.15898013  0.60560623     0.09400
C395        C  0.63304937  0.14221705  0.56898112    -0.12800
C396        C  0.58372141  0.16671452  0.56813422    -0.12800
C397        C  0.57174509  0.20801330  0.60410827     0.09400
C398        C  0.60992631  0.22524195  0.64018839    -0.12800
H399        H  0.68857986  0.21468786  0.66902248     0.13400
H400        H  0.64202732  0.11087779  0.54075671     0.13400
H401        H  0.55392434  0.15180277  0.54115667     0.13400
H402        H  0.60078872  0.25597733  0.66901038     0.13400
C403        C  0.17672591  0.02591606  0.63504395    -0.12800
C404        C  0.14516311  0.02430503  0.58969456     0.09400
C405        C  0.16748830  0.02748650  0.53870835    -0.12800
C406        C  0.22093764  0.03867328  0.53320540    -0.12800
C407        C  0.25125399  0.04729351  0.57882984     0.09400
C408        C  0.22998629  0.03754311  0.62963304    -0.12800
H409        H  0.15918843  0.02415220  0.67449342     0.13400
H410        H  0.14266810  0.02696402  0.50363439     0.13400
H411        H  0.23732966  0.04593599  0.49392583     0.13400
H412        H  0.25325559  0.04413584  0.66515360     0.13400
C413        C  0.79958271  0.83558867  0.65744363    -0.12800
C414        C  0.84255789  0.84839619  0.62399760     0.09400
C415        C  0.86882772  0.80874731  0.59548847    -0.12800
C416        C  0.85134817  0.75689071  0.59880714    -0.12800
C417        C  0.80830377  0.74379986  0.63190045     0.09400
C418        C  0.78294678  0.78301223  0.66200324    -0.12800
H419        H  0.77920141  0.86617205  0.67999745     0.13400
H420        H  0.90166300  0.81817391  0.56927116     0.13400
H421        H  0.87141696  0.72679517  0.57541550     0.13400
H422        H  0.75048118  0.77295797  0.68842607     0.13400
C423        C  0.98478628  0.34637808  0.54417013    -0.12800
C424        C  0.97203279  0.32481541  0.59392105     0.09400
C425        C  0.96561999  0.35710858  0.63862536    -0.12800
C426        C  0.96658923  0.41179112  0.63240197    -0.12800
C427        C  0.97321125  0.43360117  0.58132723     0.09400
C428        C  0.98527059  0.40111922  0.53778009    -0.12800
H429        H  0.98971213  0.32100106  0.50961912     0.13400
H430        H  0.95601589  0.34013534  0.67715049     0.13400
H431        H  0.95666480  0.43685742  0.66612563     0.13400
H432        H  0.98961455  0.41789422  0.49827202     0.13400
C433        C  0.04779769  0.19483060  0.41938490    -0.12700
C434        C  0.06715990  0.21985119  0.38240216    -0.14200
C435        C  0.04602868  0.36575641  0.25455774    -0.12700
C436        C  0.02133052  0.40301245  0.23570368    -0.14200
C437        C  0.23053708  0.22179865  0.21015120    -0.12700
C438        C  0.19310541  0.24023061  0.23481993    -0.14200
C439        C  0.05606891  0.22515125  0.81777274    -0.12700
C440        C  0.03771071  0.20181036  0.77948546    -0.14200
C441        C  0.03712112  0.39943623  0.98325849    -0.12700
C442        C  0.05662710  0.36149177  0.95953939    -0.14200
C443        C  0.19640708  0.22614689  0.94879226    -0.12700
C444        C  0.23440147  0.20231013  0.96639484    -0.14200
C445        C  0.75148825  0.95136200  0.81729368    -0.12700
C446        C  0.76876095  0.97628768  0.77915900    -0.14200
C447        C  0.80262928  0.76821298  0.96453254    -0.12700
C448        C  0.77812206  0.80577836  0.94563191    -0.14200
C449        C  0.59105178  0.94741434  0.99208903    -0.12700
C450        C  0.62852473  0.92884781  0.96732786    -0.14200
C451        C  0.78979655  0.22338348  0.77296711    -0.12700
C452        C  0.76409927  0.24213416  0.80950120    -0.14200
C453        C  0.76118461  0.37377310  0.95028128    -0.12700
C454        C  0.78660348  0.41001991  0.96995443    -0.14200
C455        C  0.59153845  0.20455407  0.96930813    -0.12700
C456        C  0.62794852  0.22979343  0.94902159    -0.14200
C457        C  0.04774615  0.93662110  0.82128205    -0.12700
C458        C  0.02169491  0.95543985  0.78455850    -0.14200
C459        C  0.06528359  0.79653276  0.95614512    -0.12700
C460        C  0.04737549  0.75892526  0.98085159    -0.14200
C461        C  0.23303114  0.95683548  0.97616102    -0.12700
C462        C  0.19530603  0.93845841  0.95180872    -0.14200
C463        C  0.02571118  0.95084683  0.42526341    -0.12700
C464        C  0.05109576  0.93294307  0.38806527    -0.14200
C465        C  0.05809693  0.80066588  0.24813553    -0.12700
C466        C  0.03414007  0.76287756  0.22973616    -0.14200
C467        C  0.18971802  0.94587503  0.25127062    -0.12700
C468        C  0.22687850  0.97070289  0.23210385    -0.14200
C469        C  0.75975190  0.94055117  0.38295339    -0.12700
C470        C  0.77827256  0.96544884  0.42012126    -0.14200
C471        C  0.76034260  0.80756832  0.23862380    -0.12700
C472        C  0.78105157  0.77053561  0.21476367    -0.14200
C473        C  0.58341131  0.96773663  0.23347649    -0.12700
C474        C  0.62100062  0.94306849  0.25074878    -0.14200
C475        C  0.76507397  0.23774248  0.38068330    -0.12700
C476        C  0.79050160  0.21734255  0.41693211    -0.14200
C477        C  0.75514372  0.37762768  0.24519907    -0.12700
C478        C  0.77452338  0.41428890  0.22044516    -0.14200
C479        C  0.62334171  0.23823752  0.24522393    -0.12700
C480        C  0.58704735  0.21889790  0.21989664    -0.14200
loop_ 
_geom_bond_atom_site_label_1 
_geom_bond_atom_site_label_2 
_geom_bond_distance 
_geom_bond_site_symmetry_2 
_ccdc_geom_bond_type 
C1            N2   1.364       .  A
C1            N6   1.358       .  A
C1          C477   1.452       .  S
N2            C3   1.365       .  A
C3            N4   1.371       .  A
C3          C475   1.473       .  S
N4            C5   1.371       .  A
C5            N6   1.358       .  A
C5          C479   1.461       .  S
C7            N8   1.366       .  A
C7           N12   1.369       .  A
C7          C471   1.466       .  S
N8            C9   1.365       .  A
C9           N10   1.357       .  A
C9          C474   1.452       .  S
N10          C11   1.358       .  A
C11          N12   1.368       .  A
C11         C469   1.459       .  S
C13          N14   1.371       .  A
C13          N18   1.365       .  A
C13         C467   1.470       .  S
N14          C15   1.370       .  A
C15          N16   1.358       .  A
C15         C465   1.460       .  S
N16          C17   1.357       .  A
C17          N18   1.364       .  A
C17         C464   1.453       .  S
C19          N20   1.373       .  A
C19          N24   1.360       .  A
C19         C462   1.471       .  S
N20          C21   1.374       .  A
C21          N22   1.366       .  A
C21         C457   1.477       .  S
N22          C23   1.365       .  A
C23          N24   1.359       .  A
C23         C459   1.457       .  S
C25          N26   1.358       .  A
C25          N30   1.365       .  A
C25         C452   1.453       .  S
N26          C27   1.358       .  A
C27          N28   1.371       .  A
C27         C453   1.464       .  S
N28          C29   1.371       .  A
C29          N30   1.366       .  A
C29         C456   1.473       .  S
C31          N32   1.365       .  A
C31          N36   1.368       .  A
C31         C445   1.467       .  S
N32          C33   1.365       .  A
C33          N34   1.365       .  A
C33         C450   1.464       .  S
N34          C35   1.366       .  A
C35          N36   1.367       .  A
C35         C448   1.470       .  S
C37          N38   1.358       .  A
C37          N42   1.365       .  A
C37         C443   1.454       .  S
N38          C39   1.358       .  A
C39          N40   1.369       .  A
C39         C439   1.461       .  S
N40          C41   1.370       .  A
C41          N42   1.366       .  A
C41         C442   1.471       .  S
C43          N44   1.365       .  A
C43          N48   1.364       .  A
C43         C438   1.459       .  S
N44          C45   1.364       .  A
C45          N46   1.366       .  A
C45         C434   1.464       .  S
N46          C47   1.365       .  A
C47          N48   1.364       .  A
C47         C435   1.463       .  S
O49          C60   1.295       .  A
O49         Eu85   2.490       .  S
O50          C61   1.291       .  A
O50         Eu84   2.466       .  S
O51          C62   1.277       .  A
O51         Eu57   2.366       .  S
O52          C63   1.291       .  A
O52         Eu57   2.454       .  S
O53          C63   1.278       .  A
O53         Eu87   2.388       .  S
O54          C62   1.297       .  A
O54         Eu86   2.493       .  S
O55          C61   1.296       .  A
O55         Eu57   2.497       .  S
O56          C60   1.300       .  A
O56         Eu57   2.521       .  S
Eu57         O67   2.339       .  S
Eu57         O59   2.361       .  S
Eu57         O58   2.347       .  S
Eu57         O65   2.362       .  S
O58         Eu87   2.354       .  S
O58         Eu84   2.362       .  S
O59         Eu85   2.357       .  S
O59         Eu86   2.357       .  S
C60         C476   1.474       .  S
C61         C451   1.451       .  S
C62         C394   1.450       .  S
C63         C424   1.434       .  S
H64          O65   0.966       .  S
O65         Eu86   2.337       .  S
O65         Eu84   2.355       .  S
H66          O67   0.967       .  S
O67         Eu85   2.360       .  S
O67         Eu87   2.370       .  S
O68          C91   1.294   1_545  A
O68         Eu84   2.486       .  S
O69          C92   1.289   1_545  A
O69         Eu85   2.455       .  S
O70          C93   1.300       .  A
O70         Eu86   2.516       .  S
O71          C94   1.301       .  A
O71         Eu87   2.520   1_455  S
O72          C95   1.299       .  A
O72         Eu87   2.510   1_455  S
O73          C96   1.300       .  A
O73         Eu86   2.516   1_565  S
O74          C97   1.292       .  A
O74         Eu88   2.457       .  S
O75          C98   1.280   1_565  A
O75         Eu88   2.403   1_455  S
O76          C97   1.282       .  A
O76         Eu86   2.401   1_565  S
O77          C98   1.289       .  A
O77         Eu87   2.438   1_455  S
O78          C93   1.291       .  A
O78         Eu84   2.468       .  S
O79          C96   1.292   1_545  A
O79         Eu85   2.472       .  S
O80          C95   1.295   1_655  A
O80         Eu85   2.488       .  S
O81          C94   1.288   1_655  A
O81         Eu84   2.452       .  S
O82          C91   1.301       .  A
O82         Eu88   2.527       .  S
O83          C92   1.298       .  A
O83         Eu88   2.508       .  S
Eu84        O102   2.361       .  S
Eu84         O90   2.346       .  S
Eu85         O89   2.357       .  S
Eu85        O100   2.378       .  S
Eu86        O100   2.376       .  S
Eu86         O90   2.367       .  S
Eu87         O89   2.343       .  S
Eu87        O102   2.351       .  S
Eu88         O89   2.359   1_565  S
Eu88        O100   2.364   1_565  S
Eu88        O102   2.362   1_565  S
Eu88         O90   2.344   1_565  S
C91         C458   1.475   1_655  S
C92         C463   1.453   1_655  S
C93         C446   1.464   1_545  S
C94         C440   1.459       .  S
C95         C433   1.464       .  S
C96         C470   1.459       .  S
C97         C414   1.451       .  S
C98         C404   1.433       .  S
H99         O100   0.965   1_565  S
H101        O102   0.967   1_455  S
O103        C114   1.291       .  A
O103       Eu139   2.469       .  S
O104        C115   1.291       .  A
O104       Eu138   2.465       .  S
O105        C116   1.295       .  A
O105       Eu111   2.485       .  S
O106        C117   1.279       .  A
O106       Eu111   2.386       .  S
O107        C117   1.297       .  A
O107       Eu141   2.489       .  S
O108        C116   1.278       .  A
O108       Eu140   2.375       .  S
O109        C115   1.298       .  A
O109       Eu111   2.504       .  S
O110        C114   1.299       .  A
O110       Eu111   2.515       .  S
Eu111       O121   2.376       .  S
Eu111       O113   2.349       .  S
Eu111       O112   2.365       .  S
Eu111       O119   2.338       .  S
O112       Eu141   2.336       .  S
O112       Eu138   2.346       .  S
O113       Eu139   2.355       .  S
O113       Eu140   2.357       .  S
C114        C480   1.461       .  S
C115        C437   1.457       .  S
C116        C354   1.454       .  S
C117        C374   1.457       .  S
H118        O119   0.964       .  S
O119       Eu140   2.355       .  S
O119       Eu138   2.362       .  S
H120        O121   0.964       .  S
O121       Eu139   2.380       .  S
O121       Eu141   2.367       .  S
O122        C145   1.290   1_545  A
O122       Eu138   2.467       .  S
O123        C146   1.294   1_545  A
O123       Eu139   2.484       .  S
O124        C147   1.300       .  A
O124       Eu140   2.515   1_556  S
O125        C148   1.300   1_565  A
O125       Eu141   2.519   1_565  S
O126        C149   1.298       .  A
O126       Eu141   2.508   1_565  S
O127        C150   1.300       .  A
O127       Eu140   2.520   1_556  S
O128        C151   1.284       .  A
O128       Eu142   2.423   1_546  S
O129        C152   1.292       .  A
O129       Eu142   2.458       .  S
O130        C151   1.290       .  A
O130       Eu140   2.449   1_556  S
O131        C152   1.281       .  A
O131       Eu141   2.405   1_565  S
O132        C147   1.289   1_554  A
O132       Eu138   2.452       .  S
O133        C150   1.294   1_554  A
O133       Eu139   2.485       .  S
O134        C149   1.288   1_545  A
O134       Eu139   2.449       .  S
O135        C148   1.293       .  A
O135       Eu138   2.481       .  S
O136        C145   1.302       .  A
O136       Eu142   2.531       .  S
O137        C146   1.298       .  A
O137       Eu142   2.506       .  S
Eu138       O156   2.359       .  S
Eu138       O144   2.364       .  S
Eu139       O143   2.350       .  S
Eu139       O154   2.352       .  S
Eu140       O154   2.340       .  S
Eu140       O144   2.356       .  S
Eu141       O143   2.360       .  S
Eu141       O156   2.379       .  S
Eu142       O143   2.350   1_565  S
Eu142       O154   2.368   1_565  S
Eu142       O156   2.364   1_565  S
Eu142       O144   2.357   1_565  S
C145        C461   1.470   1_554  S
C146        C449   1.463   1_554  S
C147        C444   1.452       .  S
C148        C468   1.469   1_545  S
C149        C473   1.451       .  S
C150        C455   1.473       .  S
C151        C384   1.444       .  S
C152        C364   1.439       .  S
H153        O154   0.966   1_556  S
H155        O156   0.964   1_565  S
O157        C168   1.289       .  A
O157       Eu193   2.457       .  S
O158        C169   1.293       .  A
O158       Eu192   2.481       .  S
O159        C170   1.279       .  A
O159       Eu165   2.388       .  S
O160        C171   1.292       .  A
O160       Eu165   2.466       .  S
O161        C171   1.279       .  A
O161       Eu195   2.382       .  S
O162        C170   1.292       .  A
O162       Eu194   2.461       .  S
O163        C169   1.298       .  A
O163       Eu165   2.507       .  S
O164        C168   1.296       .  A
O164       Eu165   2.495       .  S
Eu165       O175   2.350       .  S
Eu165       O167   2.357       .  S
Eu165       O166   2.341       .  S
Eu165       O173   2.371       .  S
O166       Eu195   2.355       .  S
O166       Eu192   2.346       .  S
O167       Eu193   2.353       .  S
O167       Eu194   2.351       .  S
C168        C478   1.450       .  S
C169        C472   1.464       .  S
C170        C334   1.446       .  S
C171        C324   1.454       .  S
H172        O173   0.965       .  S
O173       Eu194   2.364       .  S
O173       Eu192   2.367       .  S
H174        O175   0.964       .  S
O175       Eu193   2.367       .  S
O175       Eu195   2.362       .  S
O176        C199   1.291   1_655  A
O176       Eu192   2.465       .  S
O177        C200   1.291   1_655  A
O177       Eu193   2.471       .  S
O178        C201   1.300       .  A
O178       Eu194   2.517   1_455  S
O179        C202   1.301       .  A
O179       Eu195   2.524   1_556  S
O180        C203   1.299       .  A
O180       Eu195   2.512   1_556  S
O181        C204   1.299       .  A
O181       Eu194   2.513       .  S
O182        C205   1.289       .  A
O182       Eu196   2.442       .  S
O183        C206   1.276       .  A
O183       Eu196   2.374   1_656  S
O184        C205   1.281       .  A
O184       Eu194   2.411   1_455  S
O185        C206   1.291       .  A
O185       Eu195   2.451   1_556  S
O186        C201   1.289   1_655  A
O186       Eu192   2.458       .  S
O187        C204   1.293       .  A
O187       Eu193   2.481       .  S
O188        C203   1.294   1_554  A
O188       Eu193   2.483       .  S
O189        C202   1.293   1_554  A
O189       Eu192   2.476       .  S
O190        C199   1.299       .  A
O190       Eu196   2.511       .  S
O191        C200   1.302       .  A
O191       Eu196   2.529       .  S
Eu192       O210   2.358       .  S
Eu192       O198   2.365       .  S
Eu193       O197   2.355       .  S
Eu193       O208   2.364       .  S
Eu194       O208   2.372       .  S
Eu194       O198   2.360       .  S
Eu195       O197   2.351       .  S
Eu195       O210   2.339       .  S
Eu196       O197   2.358   1_455  S
Eu196       O208   2.343   1_455  S
Eu196       O210   2.363   1_455  S
Eu196       O198   2.354   1_455  S
C199        C460   1.456   1_554  S
C200        C441   1.470   1_554  S
C201        C466   1.460       .  S
C202        C447   1.469       .  S
C203        C454   1.464       .  S
C204        C436   1.463   1_655  S
C205        C317   1.437       .  S
C206        C344   1.427       .  S
H207        O208   0.965   1_455  S
H209        O210   0.966   1_556  S
N211        C216   1.346       .  A
N211        C215   1.347       .  A
N211        H243   1.044       .  S
N212        C219   1.336       .  A
N212        C220   1.336       .  A
N213        C218   1.347       .  A
N213        C217   1.344       .  A
N213        H244   1.044       .  S
N214        C221   1.344       .  A
N214        C222   1.343       .  A
C215        C223   1.394       .  A
C215        C231   1.414       .  A
C216        C232   1.387       .  A
C216        C224   1.377       .  A
C217        C225   1.395       .  A
C217        C234   1.415       .  A
C218        C233   1.386       .  A
C218        C226   1.376       .  A
C219        C231   1.395       .  A
C219        C227   1.387   1_655  A
C220        C234   1.395       .  A
C220        C228   1.389   1_655  A
C221        C229   1.386       .  A
C221        C232   1.395       .  A
C222        C230   1.387       .  A
C222        C233   1.397       .  A
C223        C224   1.376       .  A
C223        H235   1.082       .  S
C224        H236   1.082       .  S
C225        C226   1.375       .  A
C225        H237   1.081       .  S
C226        H238   1.082       .  S
C227        C228   1.374       .  A
C227        H239   1.083       .  S
C228        H240   1.083       .  S
C229        C230   1.372       .  A
C229        H241   1.083       .  S
C230        H242   1.083       .  S
C231        C427   1.458       .  S
C232        C337   1.462       .  S
C233        C417   1.462       .  S
C234        C347   1.452       .  S
N245        C250   1.350       .  A
N245        C249   1.348       .  A
N245        H277   1.043       .  S
N246        C253   1.343       .  A
N246        C254   1.347       .  A
N247        C252   1.339       .  A
N247        C251   1.343       .  A
N247        H278   1.041       .  S
N248        C255   1.344       .  A
N248        C256   1.341       .  A
C249        C257   1.387       .  A
C249        C265   1.406       .  A
C250        C266   1.409       .  A
C250        C258   1.388       .  A
C251        C259   1.386   1_545  A
C251        C268   1.400       .  A
C252        C267   1.400       .  A
C252        C260   1.388   1_545  A
C253        C265   1.391       .  A
C253        C261   1.382       .  A
C254        C268   1.409       .  A
C254        C262   1.388       .  A
C255        C263   1.382       .  A
C255        C266   1.389       .  A
C256        C264   1.390       .  A
C256        C267   1.409       .  A
C257        C258   1.378       .  A
C257        H269   1.082       .  S
C258        H270   1.083       .  S
C259        C260   1.379       .  A
C259        H271   1.082       .  S
C260        H272   1.082       .  S
C261        C262   1.377       .  A
C261        H273   1.082       .  S
C262        H274   1.081       .  S
C263        C264   1.379       .  A
C263        H275   1.082       .  S
C264        H276   1.082       .  S
C265        C397   1.466       .  S
C266        C377   1.473       .  S
C267        C407   1.459       .  S
C268        C387   1.475       .  S
N279        C284   1.348       .  A
N279        C283   1.348       .  A
N279        H311   1.044       .  S
N280        C287   1.339   1_554  A
N280        C288   1.340       .  A
N281        C286   1.339       .  A
N281        C285   1.341       .  A
N281        H312   1.040       .  S
N282        C289   1.343   1_554  A
N282        C290   1.342       .  A
C283        C291   1.387       .  A
C283        C299   1.404       .  A
C284        C300   1.405       .  A
C284        C292   1.388       .  A
C285        C293   1.386       .  A
C285        C302   1.401       .  A
C286        C301   1.399       .  A
C286        C294   1.387       .  A
C287        C299   1.384       .  A
C287        C295   1.382       .  A
C288        C302   1.408       .  A
C288        C296   1.390       .  A
C289        C297   1.381       .  A
C289        C300   1.388       .  A
C290        C298   1.390       .  A
C290        C301   1.410       .  A
C291        C292   1.376       .  A
C291        H303   1.082       .  S
C292        H304   1.083       .  S
C293        C294   1.381       .  A
C293        H305   1.082       .  S
C294        H306   1.082       .  S
C295        C296   1.377   1_556  A
C295        H307   1.082       .  S
C296        H308   1.081       .  S
C297        C298   1.379   1_556  A
C297        H309   1.082       .  S
C298        H310   1.081       .  S
C299        C327   1.464       .  S
C300        C357   1.467       .  S
C301        C314   1.462       .  S
C302        C367   1.461       .  S
C313        C314   1.399       .  A
C313        C318   1.389       .  A
C313        H319   1.083       .  S
C314        C315   1.406       .  A
C315        C316   1.385       .  A
C315        H320   1.084       .  S
C316        C317   1.393       .  A
C316        H321   1.084       .  S
C317        C318   1.399       .  A
C318        H322   1.084       .  S
C323        C324   1.409   1_556  A
C323        C328   1.387       .  A
C323        H329   1.084       .  S
C324        C325   1.395       .  A
C325        C326   1.391       .  A
C325        H330   1.083       .  S
C326        C327   1.411   1_554  A
C326        H331   1.084       .  S
C327        C328   1.391       .  A
C328        H332   1.083       .  S
C333        C334   1.394       .  A
C333        C338   1.388       .  A
C333        H339   1.084       .  S
C334        C335   1.405       .  A
C335        C336   1.389       .  A
C335        H340   1.084       .  S
C336        C337   1.396       .  A
C336        H341   1.083       .  S
C337        C338   1.408       .  A
C338        H342   1.083       .  S
C343        C344   1.391       .  A
C343        C348   1.381       .  A
C343        H349   1.084       .  S
C344        C345   1.400       .  A
C345        C346   1.386       .  A
C345        H350   1.084       .  S
C346        C347   1.396       .  A
C346        H351   1.083   1_655  S
C347        C348   1.404       .  A
C348        H352   1.084       .  S
C353        C354   1.409   1_556  A
C353        C358   1.389       .  A
C353        H359   1.084       .  S
C354        C355   1.394       .  A
C355        C356   1.390       .  A
C355        H360   1.083       .  S
C356        C357   1.411   1_554  A
C356        H361   1.084       .  S
C357        C358   1.394       .  A
C358        H362   1.083       .  S
C363        C364   1.394       .  A
C363        C368   1.385       .  A
C363        H369   1.084       .  S
C364        C365   1.400       .  A
C365        C366   1.392       .  A
C365        H370   1.084       .  S
C366        C367   1.401       .  A
C366        H371   1.083       .  S
C367        C368   1.402       .  A
C368        H372   1.084       .  S
C373        C374   1.411       .  A
C373        C378   1.396       .  A
C373        H379   1.084       .  S
C374        C375   1.392       .  A
C375        C376   1.386       .  A
C375        H380   1.083       .  S
C376        C377   1.409       .  A
C376        H381   1.084       .  S
C377        C378   1.398       .  A
C378        H382   1.083       .  S
C383        C384   1.393       .  A
C383        C388   1.385       .  A
C383        H389   1.084       .  S
C384        C385   1.401       .  A
C385        C386   1.395       .  A
C385        H390   1.084       .  S
C386        C387   1.403       .  A
C386        H391   1.083       .  S
C387        C388   1.406       .  A
C388        H392   1.083       .  S
C393        C394   1.407       .  A
C393        C398   1.389       .  A
C393        H399   1.084       .  S
C394        C395   1.394       .  A
C395        C396   1.390       .  A
C395        H400   1.083       .  S
C396        C397   1.409       .  A
C396        H401   1.083       .  S
C397        C398   1.397       .  A
C398        H402   1.083       .  S
C403        C404   1.394       .  A
C403        C408   1.385       .  A
C403        H409   1.084       .  S
C404        C405   1.399       .  A
C405        C406   1.387       .  A
C405        H410   1.084       .  S
C406        C407   1.399       .  A
C406        H411   1.083       .  S
C407        C408   1.403       .  A
C408        H412   1.084       .  S
C413        C414   1.408       .  A
C413        C418   1.394       .  A
C413        H419   1.084       .  S
C414        C415   1.393       .  A
C415        C416   1.382       .  A
C415        H420   1.084       .  S
C416        C417   1.406       .  A
C416        H421   1.082       .  S
C417        C418   1.396       .  A
C418        H422   1.083       .  S
C423        C424   1.398       .  A
C423        C428   1.387       .  A
C423        H429   1.084       .  S
C424        C425   1.394       .  A
C425        C426   1.386       .  A
C425        H430   1.084       .  S
C426        C427   1.404       .  A
C426        H431   1.084       .  S
C427        C428   1.397       .  A
C428        H432   1.083       .  S
C433        C434   1.223       .  T
C435        C436   1.222       .  T
C437        C438   1.219       .  T
C439        C440   1.221       .  T
C441        C442   1.227       .  T
C443        C444   1.216       .  T
C445        C446   1.224       .  T
C447        C448   1.226       .  T
C449        C450   1.222       .  T
C451        C452   1.216       .  T
C453        C454   1.223       .  T
C455        C456   1.228       .  T
C457        C458   1.230       .  T
C459        C460   1.219       .  T
C461        C462   1.227       .  T
C463        C464   1.216       .  T
C465        C466   1.221       .  T
C467        C468   1.226       .  T
C469        C470   1.220       .  T
C471        C472   1.223       .  T
C473        C474   1.216       .  T
C475        C476   1.229       .  T
C477        C478   1.215       .  T
C479        C480   1.221       .  T
