geometry optimzed in LAMMPS
_audit_creation_date              2020-12-01 
_audit_creation_method            'lammps2cif' 
_symmetry_space_group_name_H-M    'P1' 
_symmetry_Int_Tables_number       1 
_symmetry_cell_setting            triclinic 
loop_ 
_symmetry_equiv_pos_as_xyz 
  x,y,z 
_cell_length_a                    24.9916595 
_cell_length_b                    25.001451438313914 
_cell_length_c                    52.05538942652554 
_cell_angle_alpha                 90.05174744265237 
_cell_angle_beta                  89.96583774819953 
_cell_angle_gamma                 90.01510057207915 
loop_ 
_atom_site_label 
_atom_site_type_symbol 
_atom_site_fract_x 
_atom_site_fract_y 
_atom_site_fract_z 
_atom_site_charge 
C1          C  0.86742926  0.69748729  0.31875068     0.81000
N2          N  0.88968370  0.67564486  0.34002229    -0.77300
C3          C  0.86653896  0.63261705  0.35147264     0.83500
N4          N  0.82106840  0.61154820  0.34130751    -0.77200
C5          C  0.79915874  0.63335750  0.31990245     0.83600
N6          N  0.82235315  0.67623201  0.30863071    -0.78900
C7          C  0.73608521  0.76641052  0.10661765     0.81000
N8          N  0.78293753  0.78612819  0.11612865    -0.77300
C9          C  0.80881389  0.76061922  0.13556602     0.83500
N10         N  0.78752243  0.71535382  0.14577409    -0.77200
C11         C  0.74108124  0.69504145  0.13634129     0.83600
N12         N  0.71533240  0.72084058  0.11697807    -0.78900
C13         C  0.35013905  0.68806425  0.32767056     0.81000
N14         N  0.30302870  0.70885703  0.31936330    -0.77300
C15         C  0.28441931  0.75539671  0.32944737     0.83500
N16         N  0.31362217  0.78160202  0.34752417    -0.77200
C17         C  0.36111336  0.76131797  0.35588329     0.83600
N18         N  0.37919390  0.71448683  0.34572370    -0.78900
C19         C  0.87436407  0.27993811  0.11276609     0.81000
N20         N  0.82970144  0.30012353  0.12419869    -0.77300
C21         C  0.80904455  0.27663882  0.14551215     0.83500
N22         N  0.83295781  0.23282932  0.15558732    -0.77200
C23         C  0.87741084  0.21232570  0.14439158     0.83600
N24         N  0.89817986  0.23585937  0.12306392    -0.78900
C25         C  0.16445710  0.83482309  0.29301450     0.43300
N26         N  0.14154805  0.89435431  0.26552639     0.02200
C27         C  0.91120949  0.04944805  0.26287639    -0.05700
H28         H  0.88173420  0.84382256  0.24859558     0.07700
C29         C  0.98070480  0.85904855  0.16618282    -0.06100
Co30       Co  0.04183362  0.95292280  0.28045090     0.74200
N31         N  0.94820912  0.89529491  0.25837636    -0.25200
Co32       Co  0.95098112  0.95435163  0.22998626     0.74100
C33         C  0.92884333  0.83721610  0.17396629     0.43400
N34         N  0.11257071  0.89147950  0.18914249     0.01800
N35         N  0.95357607  0.89658158  0.20127155     0.01900
N36         N  0.96886127  0.04643938  0.29628007    -0.46100
H37         H  0.09058504  0.85216423  0.31821853     0.07700
N38         N  0.98308554  0.89463870  0.27748527     0.02200
N39         N  0.95808276  0.01349608  0.20165734     0.01900
C40         C  0.94609417  0.08142503  0.17743580     0.43500
N41         N  0.14758600  0.89140462  0.20820698    -0.24700
C42         C  0.10488261  0.05398333  0.29672015    -0.05600
N43         N  0.17965684  0.85961346  0.27126202    -0.45800
N44         N  0.92564501  0.05465192  0.19770294    -0.46000
C45         C  0.15264894  0.08105312  0.28776165     0.43300
N46         N  0.98187599  0.01116542  0.27825800     0.02200
N47         N  0.15078376  0.00768418  0.20750599    -0.24700
N48         N  0.10247813  0.89506766  0.28257898    -0.25200
N49         N  0.11688672  0.00791435  0.18809967     0.01800
H50         H  0.22460652  0.04977249  0.21472389     0.07700
H51         H  0.02052253  0.06244442  0.15314936     0.07700
N52         N  0.94822569  0.01169882  0.25876027    -0.25300
N53         N  0.99282950  0.89550022  0.18432471    -0.24900
N54         N  0.14043747  0.01150696  0.26460411     0.02200
C55         C  0.93314249  0.82729744  0.28437244     0.43600
C56         C  0.18104616  0.84991022  0.20490747    -0.06100
N57         N  0.99807382  0.01194785  0.18503960    -0.24900
H58         H  0.00355716  0.85143977  0.14891312     0.07700
N59         N  0.97537354  0.85449836  0.29359524    -0.46100
H60         H  0.21444711  0.83975343  0.21716877     0.07700
C61         C  0.17590539  0.06660547  0.17822268     0.43400
C62         C  0.11354187  0.85866952  0.30088026    -0.05600
Co63       Co  0.14611817  0.95124146  0.23654633     0.73800
N64         N  0.12025987  0.85196372  0.17259590    -0.45800
C65         C  0.92538596  0.07282066  0.28751756     0.43700
N66         N  0.17297793  0.05287774  0.26787975    -0.45800
Co67       Co  0.05519803  0.95155342  0.18615598     0.73900
C68         C  0.99378231  0.05342317  0.16890323    -0.06100
C69         C  0.91466750  0.85386207  0.26117684    -0.05700
N70         N  0.10041892  0.01148115  0.28122482    -0.25200
N71         N  0.91427362  0.86308155  0.19556811    -0.46000
H72         H  0.87651951  0.05680188  0.25097860     0.07700
C73         C  0.18941183  0.04359187  0.20300556    -0.06100
Cl74       Cl  0.04854558  0.95237206  0.23328132    -0.49100
C75         C  0.16251544  0.82410571  0.18139329     0.43400
H76         H  0.07778328  0.06463990  0.31209943     0.07600
N77         N  0.13115871  0.04194266  0.16979067    -0.45800
C78         C  0.22099421  0.62906239  0.11175258     0.81000
N79         N  0.26567678  0.60549629  0.12158252    -0.77300
C80         C  0.28995295  0.62615091  0.14272359     0.83500
N81         N  0.26955005  0.67029020  0.15424094    -0.77200
C82         C  0.22510686  0.69401905  0.14467220     0.83600
N83         N  0.20086666  0.67344882  0.12349538    -0.78900
C84         C  0.80842087  0.14817323  0.32791575     0.81000
N85         N  0.78451946  0.12128577  0.34744092    -0.77300
C86         C  0.73868312  0.14014278  0.35828746     0.83500
N87         N  0.71674305  0.18624392  0.34912708    -0.77200
C88         C  0.74050956  0.21324614  0.32954145     0.83600
N89         N  0.78603433  0.19379997  0.31879560    -0.78900
C90         C  0.21565770  0.28490455  0.35001874     0.81000
N91         N  0.26104300  0.30559663  0.33937300    -0.77300
C92         C  0.28404916  0.28155716  0.31867639     0.83500
N93         N  0.26167215  0.23702485  0.30847228    -0.77200
C94         C  0.21652876  0.21628812  0.31883898     0.83600
N95         N  0.19364177  0.24004116  0.33957882    -0.78900
C96         C  0.36100170  0.13910692  0.10649020     0.81000
N97         N  0.38087837  0.18592901  0.11586451    -0.77300
C98         C  0.35646636  0.21112386  0.13580035     0.83500
N99         N  0.31222790  0.18925560  0.14666603    -0.77200
C100        C  0.29182369  0.14283985  0.13734994     0.83600
N101        N  0.31644946  0.11763363  0.11747485    -0.78900
C102        C  0.66921013  0.56410311  0.28710208     0.43300
N103        N  0.60323512  0.54681062  0.26255555     0.02200
C104        C  0.44666066  0.31944068  0.26193527    -0.05700
H105        H  0.64754371  0.27867017  0.25424198     0.07700
C106        C  0.65187778  0.39179457  0.17001694    -0.06100
Co107      Co  0.54568129  0.44805405  0.27934855     0.74200
N108        N  0.60477718  0.35260588  0.25995104    -0.25200
Co109      Co  0.54882424  0.35393912  0.23050585     0.74100
C110        C  0.67827533  0.34390439  0.17936464     0.43400
N111        N  0.60577783  0.51797414  0.18655184     0.01800
N112        N  0.60959014  0.35883677  0.20275724     0.01900
N113        N  0.44742350  0.38201579  0.29348229    -0.46100
H114        H  0.65360148  0.49044969  0.31237386     0.07700
N115        N  0.60420456  0.38797650  0.27877119     0.02200
N116        N  0.49279269  0.35549607  0.20103207     0.01900
C117        C  0.43430245  0.33051130  0.17346388     0.43500
N118        N  0.60344105  0.55328514  0.20536891    -0.24700
C119        C  0.44968021  0.51894354  0.29744200    -0.05600
N120        N  0.64234242  0.58173794  0.26632681    -0.45800
N121        N  0.45857361  0.31669548  0.19557199    -0.46000
C122        C  0.42510002  0.56866190  0.28870538     0.43300
N123        N  0.48760838  0.38872950  0.27721691     0.02200
N124        N  0.48715853  0.54846565  0.20466252    -0.24700
N125        N  0.60333066  0.50782018  0.27971271    -0.25200
N126        N  0.48904535  0.51259646  0.18599637     0.01800
H127        H  0.43368899  0.61453514  0.21236782     0.07700
H128        H  0.45142176  0.40298584  0.14746028     0.07700
N129        N  0.48826146  0.35280187  0.25855509    -0.25300
N130        N  0.60977605  0.39796494  0.18566143    -0.24900
N131        N  0.48648503  0.54570303  0.26210935     0.02200
C132        C  0.66305940  0.33004822  0.29002705     0.43600
C133        C  0.63862005  0.59254349  0.20069680    -0.06100
N134        N  0.49359818  0.39342512  0.18341906    -0.24900
H135        H  0.66197988  0.41714024  0.15390089     0.07700
N136        N  0.63776765  0.37522555  0.29757875    -0.46100
H137        H  0.64308642  0.62871852  0.21190672     0.07700
C138        C  0.42109917  0.56070936  0.17697897     0.43400
C139        C  0.64380582  0.51547968  0.29610892    -0.05600
Co140      Co  0.54502576  0.54951374  0.23374185     0.73800
N141        N  0.64054169  0.53198623  0.16843134    -0.45800
C142        C  0.42001093  0.33915964  0.28505192     0.43700
N143        N  0.45067018  0.58335111  0.26704020    -0.45800
Co144      Co  0.54966597  0.45550068  0.18490204     0.73900
C145        C  0.45784657  0.38099510  0.16507284    -0.06100
C146        C  0.64087841  0.31469452  0.26531218    -0.05700
N147        N  0.48719404  0.50778736  0.27971956    -0.25200
N148        N  0.65008652  0.32518136  0.19956921    -0.46000
H149        H  0.43666517  0.28566296  0.24986371     0.07700
C150        C  0.44525233  0.58087748  0.20054141    -0.06100
Cl151      Cl  0.54734089  0.45174451  0.23212091    -0.49100
C152        C  0.66356872  0.57806746  0.17643228     0.43400
H153        H  0.44289243  0.49685328  0.31499989     0.07600
N154        N  0.45018207  0.51855720  0.16893682    -0.45800
N155        N  0.54823648  0.94762223  0.51954504    -0.35800
N156        N  0.60948178  0.00591372  0.48086123    -0.56300
N157        N  0.55775568  0.94261630  0.44021870    -0.35800
N158        N  0.49096171  0.88983540  0.47895574    -0.56300
C159        C  0.57201478  0.98481315  0.53462649     0.27800
C160        C  0.50943310  0.92391233  0.53364797     0.27800
C161        C  0.58467021  0.97872387  0.42573272     0.27800
C162        C  0.52250975  0.91697347  0.42471660     0.27800
C163        C  0.63368832  0.02543268  0.50213079     0.36400
C164        C  0.63815064  0.02345498  0.46052600     0.36400
C165        C  0.46951461  0.86504080  0.49963595     0.36400
C166        C  0.47436578  0.86248061  0.45799451     0.36400
C167        C  0.54856797  0.98408875  0.55877962    -0.21100
C168        C  0.50921733  0.94572898  0.55817754    -0.21100
C169        C  0.56714472  0.97503714  0.40050195    -0.21100
C170        C  0.52807826  0.93616507  0.39986031    -0.21100
C171        C  0.67769316  0.05597789  0.49526788    -0.22100
C172        C  0.68047948  0.05481068  0.46894538    -0.22100
C173        C  0.43850170  0.82210275  0.49175484    -0.22100
C174        C  0.44152171  0.82049675  0.46542246    -0.22100
C175        C  0.61537628  0.01833002  0.52762346    -0.17500
C176        C  0.47546251  0.88176499  0.52548256    -0.17500
C177        C  0.48602342  0.87616055  0.43214784    -0.17500
C178        C  0.62529464  0.01427597  0.43438859    -0.17500
H179        H  0.55875014  0.00860703  0.57521331     0.15400
H180        H  0.48346011  0.93511773  0.57409727     0.15400
H181        H  0.58090667  0.99810319  0.38419936     0.15400
H182        H  0.50607504  0.92370248  0.38298141     0.15400
H183        H  0.70471262  0.07730798  0.50788711     0.13700
H184        H  0.71013858  0.07508162  0.45733278     0.13700
H185        H  0.41571977  0.79497363  0.50370867     0.13700
H186        H  0.42152545  0.79181270  0.45314993     0.13700
H187        H  0.55942186  0.93727924  0.50113007     0.27000
H188        H  0.56431076  0.93473411  0.45945019     0.27000
N189        N  0.04089630  0.46085950  0.01950982    -0.35800
N190        N  0.09418458  0.52424044  0.97952347    -0.56300
N191        N  0.03503689  0.46437627  0.94016698    -0.35800
N192        N  0.97689633  0.40599263  0.98038526    -0.56300
C193        C  0.06699596  0.49696104  0.03431195     0.27800
C194        C  0.00579313  0.43451190  0.03475929     0.27800
C195        C  0.06136007  0.49959720  0.92495508     0.27800
C196        C  0.99910229  0.43783287  0.92542570     0.27800
C197        C  0.12176272  0.54212212  0.00019477     0.36400
C198        C  0.11962996  0.54306901  0.95842900     0.36400
C199        C  0.95902024  0.37934769  0.00131611     0.36400
C200        C  0.95585296  0.38119573  0.95961183     0.36400
C201        C  0.04877043  0.49285847  0.05942273    -0.21100
C202        C  0.01033533  0.45354740  0.05970699    -0.21100
C203        C  0.04212187  0.49501166  0.90004500    -0.21100
C204        C  0.00297728  0.45618799  0.90034393    -0.21100
C205        C  0.16445708  0.57333613  0.99221066    -0.22100
C206        C  0.16311930  0.57396329  0.96582363    -0.22100
C207        C  0.92561340  0.33793581  0.99382592    -0.22100
C208        C  0.92357037  0.33910787  0.96747481    -0.22100
C209        C  0.10834019  0.53207270  0.02622257    -0.17500
C210        C  0.97083819  0.39263580  0.02716993    -0.17500
C211        C  0.96421204  0.39621035  0.93361890    -0.17500
C212        C  0.10373859  0.53417870  0.93256777    -0.17500
H213        H  0.06190461  0.51564842  0.07594259     0.15400
H214        H  0.98828552  0.44049941  0.07646876     0.15400
H215        H  0.05517438  0.51701603  0.88327853     0.15400
H216        H  0.98021940  0.44278789  0.88386580     0.15400
H217        H  0.19356230  0.59360135  0.00414449     0.13700
H218        H  0.19104998  0.59488484  0.95351449     0.13700
H219        H  0.90473240  0.30984506  0.00606235     0.13700
H220        H  0.90084765  0.31196386  0.95549393     0.13700
H221        H  0.04844099  0.45288863  0.00039499     0.27000
H222        H  0.04278299  0.45723080  0.95927720     0.27000
N223        N  0.04204900  0.46053270  0.44292106    -0.35800
N224        N  0.09882720  0.40122044  0.48207953    -0.56300
N225        N  0.04405409  0.46499077  0.52219592    -0.35800
N226        N  0.98103320  0.51803371  0.48287746    -0.56300
C227        C  0.06626139  0.42312616  0.42809814     0.27800
C228        C  0.00371754  0.48389316  0.42849642     0.27800
C229        C  0.06881110  0.42785826  0.53687204     0.27800
C230        C  0.00779491  0.49058030  0.53722114     0.27800
C231        C  0.12534048  0.38227305  0.46128446     0.36400
C232        C  0.12540918  0.38344230  0.50297749     0.36400
C233        C  0.96269218  0.54375630  0.46183060     0.36400
C234        C  0.96403673  0.54642733  0.50346409     0.36400
C235        C  0.04342816  0.42324434  0.40382925    -0.21100
C236        C  0.00390730  0.46140638  0.40409859    -0.21100
C237        C  0.04880028  0.43068356  0.56172597    -0.21100
C238        C  0.01040811  0.47016831  0.56193469    -0.21100
C239        C  0.16855307  0.35160130  0.46899398    -0.22100
C240        C  0.16855494  0.35221760  0.49537934    -0.22100
C241        C  0.93332141  0.58833209  0.46909281    -0.22100
C242        C  0.93408674  0.58995788  0.49544120    -0.22100
C243        C  0.10969228  0.39020851  0.43545187    -0.17500
C244        C  0.97031424  0.52681648  0.43614080    -0.17500
C245        C  0.97306088  0.53248345  0.52945663    -0.17500
C246        C  0.11015925  0.39261530  0.52884878    -0.17500
H247        H  0.05410794  0.39845615  0.38755955     0.15400
H248        H  0.97837758  0.47162321  0.38804661     0.15400
H249        H  0.06055797  0.40672939  0.57808318     0.15400
H250        H  0.98692739  0.48227169  0.57842128     0.15400
H251        H  0.19683778  0.33059303  0.45689029     0.13700
H252        H  0.19700183  0.33174257  0.50756906     0.13700
H253        H  0.91329205  0.61672805  0.45671228     0.13700
H254        H  0.91476792  0.61980483  0.50732338     0.13700
H255        H  0.05287091  0.47175227  0.46131393     0.27000
H256        H  0.05304387  0.47361449  0.50326475     0.27000
N257        N  0.54403945  0.95035832  0.94221093    -0.35800
N258        N  0.48919265  0.01295977  0.98126581    -0.56300
N259        N  0.54551832  0.95160668  0.02165339    -0.35800
N260        N  0.60645564  0.89518454  0.98238867    -0.56300
C261        C  0.51912863  0.98664470  0.92704189     0.27800
C262        C  0.58076246  0.92478029  0.92760888     0.27800
C263        C  0.51981227  0.98832829  0.03626457     0.27800
C264        C  0.58187495  0.92641018  0.03674892     0.27800
C265        C  0.46231935  0.03093375  0.96038563     0.36400
C266        C  0.46268490  0.03129950  0.00213942     0.36400
C267        C  0.62418626  0.86814332  0.96156863     0.36400
C268        C  0.62519514  0.86890979  0.00323874     0.36400
C269        C  0.53976920  0.98339890  0.90235253    -0.21100
C270        C  0.57855908  0.94447242  0.90270320    -0.21100
C271        C  0.53952146  0.98582808  0.06116749    -0.21100
C272        C  0.57855730  0.94687777  0.06146345    -0.21100
C273        C  0.41896223  0.06153696  0.96802576    -0.22100
C274        C  0.41914943  0.06177211  0.99441628    -0.22100
C275        C  0.65496910  0.82486468  0.96921755    -0.22100
C276        C  0.65566914  0.82538814  0.99557360    -0.22100
C277        C  0.47714229  0.02152525  0.93448707    -0.17500
C278        C  0.61501349  0.88283689  0.93569348    -0.17500
C279        C  0.61688306  0.88443692  0.02912077    -0.17500
C280        C  0.47787171  0.02284977  0.02810275    -0.17500
H281        H  0.52815940  0.00667672  0.88574496     0.15400
H282        H  0.60243770  0.93211032  0.88639265     0.15400
H283        H  0.52706179  0.00958365  0.07750092     0.15400
H284        H  0.60181202  0.93498964  0.07803684     0.15400
H285        H  0.39018008  0.08161180  0.95586296     0.13700
H286        H  0.39044712  0.08217978  0.00652844     0.13700
H287        H  0.67503601  0.79597679  0.95707591     0.13700
H288        H  0.67633360  0.79694482  0.00768803     0.13700
H289        H  0.53497875  0.94163455  0.96109910     0.27000
H290        H  0.53696010  0.94289297  0.00272244     0.27000
C291        C  0.71992477  0.71533609  0.81737408     0.81000
N292        N  0.76371129  0.73862542  0.80688411    -0.77300
C293        C  0.78615102  0.78175295  0.81838891     0.83500
N294        N  0.76469089  0.80172077  0.84033022    -0.77200
C295        C  0.72060246  0.77863137  0.85089812     0.83600
N296        N  0.69828208  0.73539236  0.83923024    -0.78900
C297        C  0.77744829  0.26614525  0.82724433     0.81000
N298        N  0.80239099  0.29250751  0.84666920    -0.77300
C299        C  0.84926654  0.27383269  0.85650194     0.83500
N300        N  0.87112581  0.22849505  0.84642603    -0.77200
C301        C  0.84632586  0.20191458  0.82700370     0.83600
N302        N  0.79977573  0.22117976  0.81725818    -0.78900
C303        C  0.37259475  0.12746263  0.84868424     0.81000
N304        N  0.39268456  0.17410849  0.83909465    -0.77300
C305        C  0.36971991  0.19760522  0.81826977     0.83500
N306        N  0.32657037  0.17474329  0.80702177    -0.77200
C307        C  0.30619648  0.12852145  0.81637545     0.83600
N308        N  0.32918094  0.10483837  0.83711394    -0.78900
C309        C  0.23224467  0.71981338  0.82506584     0.81000
N310        N  0.20470522  0.69361721  0.84373051    -0.77300
C311        C  0.22433254  0.64769421  0.85417823     0.83500
N312        N  0.27191593  0.62810330  0.84551328    -0.77200
C313        C  0.29968473  0.65423778  0.82689451     0.83600
N314        N  0.27952870  0.69980547  0.81654047    -0.78900
C315        C  0.22562744  0.27351107  0.60620620     0.81000
N316        N  0.27088169  0.29416080  0.61683113    -0.77300
C317        C  0.29732745  0.26710004  0.63549839     0.83500
N318        N  0.27819645  0.21948846  0.64393600    -0.77200
C319        C  0.23328461  0.19841641  0.63337529     0.83600
N320        N  0.20689292  0.22557264  0.61470747    -0.78900
C321        C  0.71313197  0.13095855  0.61271587     0.81000
N322        N  0.75775623  0.11100305  0.62419008    -0.77300
C323        C  0.77865655  0.13529439  0.64522063     0.83500
N324        N  0.75496534  0.17941719  0.65504994    -0.77200
C325        C  0.71050438  0.19955999  0.64383098     0.83600
N326        N  0.68956921  0.17551744  0.62267513    -0.78900
C327        C  0.42126166  0.57868702  0.78993774     0.43300
N328        N  0.44453702  0.51878240  0.76267851     0.02200
C329        C  0.67613330  0.36546717  0.76212453    -0.05700
H330        H  0.70478256  0.56946254  0.74676455     0.07700
C331        C  0.60568201  0.55260740  0.66382196    -0.06100
Co332      Co  0.54389360  0.46079034  0.77826567     0.74200
N333        N  0.63778150  0.51850908  0.75629989    -0.25200
Co334      Co  0.63576272  0.45890545  0.72818268     0.74100
C335        C  0.65697629  0.57548905  0.67166070     0.43400
N336        N  0.47466954  0.51974036  0.68645177     0.01800
N337        N  0.63310151  0.51603177  0.69908133     0.01900
N338        N  0.61709847  0.36848863  0.79502125    -0.46100
H339        H  0.49468916  0.56174917  0.81540219     0.07700
N340        N  0.60261667  0.51934639  0.77530084     0.02200
N341        N  0.62943004  0.39909649  0.70016232     0.01900
C342        C  0.64204426  0.33068889  0.67638012     0.43500
N343        N  0.43952288  0.52017728  0.70546754    -0.24700
C344        C  0.47939495  0.36101554  0.79548797    -0.05600
N345        N  0.40630958  0.55353220  0.76822588    -0.45800
N346        N  0.66215692  0.35804711  0.69653953    -0.46000
C347        C  0.43104583  0.33426799  0.78697147     0.43700
N348        N  0.60411592  0.40283462  0.77662019     0.02200
N349        N  0.43650802  0.40386719  0.70528152    -0.24700
N350        N  0.48334019  0.51845098  0.77983728    -0.25200
N351        N  0.47084626  0.40323067  0.68603220     0.01800
H352        H  0.36285905  0.36144488  0.71246091     0.07700
H353        H  0.56792855  0.34847342  0.65176774     0.07700
N354        N  0.63849371  0.40228952  0.75737867    -0.25300
N355        N  0.59406158  0.51623110  0.68203489    -0.24900
N356        N  0.44517187  0.40168026  0.76257711     0.02200
C357        C  0.65278657  0.58660474  0.78231146     0.43600
C358        C  0.40649757  0.56192526  0.70217450    -0.06100
N359        N  0.58967071  0.39993799  0.68342537    -0.24900
H360        H  0.58272252  0.55974707  0.64655703     0.07700
N361        N  0.61031423  0.55954033  0.79143646    -0.46100
H362        H  0.37323634  0.57252551  0.71446168     0.07700
C363        C  0.41254965  0.34378176  0.67630948     0.43400
C364        C  0.47204267  0.55507929  0.79799187    -0.05600
Co365      Co  0.44039647  0.46108107  0.73404435     0.73800
N366        N  0.46750341  0.55932315  0.66991951    -0.45800
C367        C  0.66143818  0.34270829  0.78684395     0.43700
N368        N  0.41165776  0.36127774  0.76650537    -0.45800
Co369      Co  0.53220999  0.45986573  0.68397073     0.73900
C370        C  0.59438334  0.35808934  0.66754429    -0.06100
C371        C  0.67145333  0.55980861  0.75918395    -0.05700
N372        N  0.48500174  0.40219366  0.77928586    -0.25200
N373        N  0.67183377  0.55021613  0.69337194    -0.46000
H374        H  0.71144670  0.35839196  0.75058992     0.07700
C375        C  0.39823550  0.36755779  0.70084586    -0.06100
Cl376      Cl  0.53806327  0.46019007  0.73111444    -0.49100
C377        C  0.42542209  0.58749315  0.67873843     0.43400
H378        H  0.50584630  0.35128411  0.81123875     0.07600
N379        N  0.45727329  0.36847872  0.66790292    -0.45800
C380        C  0.84996571  0.64979298  0.60586542     0.81000
N381        N  0.86918020  0.69615973  0.61608360    -0.77300
C382        C  0.84158013  0.72237119  0.63475427     0.83500
N383        N  0.79491672  0.70157309  0.64370843    -0.77200
C384        C  0.77522606  0.65541137  0.63364782     0.83600
N385        N  0.80287435  0.62960170  0.61484889    -0.78900
C386        C  0.36368084  0.78265845  0.61032875     0.81000
N387        N  0.31860101  0.80526963  0.62026746    -0.77300
C388        C  0.29497878  0.78395297  0.64143021     0.83500
N389        N  0.31629430  0.74010514  0.65277403    -0.77200
C390        C  0.36110699  0.71739779  0.64301590     0.83600
N391        N  0.38474728  0.73866534  0.62190995    -0.78900
C392        C  0.91352997  0.85502421  0.78483686     0.43300
N393        N  0.98024145  0.86981764  0.76027806     0.02200
C394        C  0.14636921  0.09004027  0.75847889    -0.05700
H395        H  0.94537296  0.13860025  0.75078548     0.07700
C396        C  0.93744048  0.02329019  0.66777196    -0.06100
Co397      Co  0.04184105  0.96629107  0.77674012     0.74200
N398        N  0.98662412  0.06392607  0.75705197    -0.25200
Co399      Co  0.04250175  0.05960157  0.72757456     0.74100
C400        C  0.91215965  0.07151186  0.67730795     0.43400
N401        N  0.97905691  0.89735886  0.68417069     0.01800
N402        N  0.98156191  0.05627083  0.69995576     0.01900
N403        N  0.14321922  0.02818783  0.79027856    -0.46100
H404        H  0.93192247  0.92827803  0.81007924     0.07700
N405        N  0.98574369  0.02879424  0.77594298     0.02200
N406        N  0.09837082  0.05522201  0.69812126     0.01900
C407        C  0.15748321  0.07788718  0.67041722     0.43500
N408        N  0.97966666  0.86263599  0.70322166    -0.24700
C409        C  0.13478412  0.89110253  0.79508400    -0.05600
N410        N  0.94001711  0.83627071  0.76415793    -0.45800
N411        N  0.13384502  0.09273530  0.69253364    -0.46000
C412        C  0.15705525  0.84012456  0.78641648     0.43300
N413        N  0.10245966  0.02305754  0.77423281     0.02200
N414        N  0.09622713  0.86247132  0.70236371    -0.24700
N415        N  0.98155264  0.90898512  0.77735918    -0.25200
N416        N  0.09580770  0.89804963  0.68358338     0.01800
H417        H  0.14774399  0.79513702  0.71053382     0.07700
H418        H  0.13751504  0.00594024  0.64448628     0.07700
N419        N  0.10316797  0.05865497  0.75545339    -0.25300
N420        N  0.98004889  0.01689723  0.68297823    -0.24900
N421        N  0.09694403  0.86583534  0.75976401     0.02200
C422        C  0.92774546  0.08813986  0.78665555     0.43600
C423        C  0.94236821  0.82521136  0.69892785    -0.06100
N424        N  0.09612375  0.01715997  0.68057869    -0.24900
H425        H  0.92588665  0.99740984  0.65206633     0.07700
N426        N  0.95165495  0.04241108  0.79442421    -0.46100
H427        H  0.93610021  0.78971237  0.71040520     0.07700
C428        C  0.16229452  0.84778806  0.67494228     0.43400
C429        C  0.94072440  0.90289192  0.79378286    -0.05600
Co430      Co  0.03829871  0.86427247  0.73146452     0.73800
N431        N  0.94351963  0.88453176  0.66620368    -0.45800
C432        C  0.17254351  0.06941355  0.78148134     0.43700
N433        N  0.13095201  0.82658105  0.76473520    -0.45800
Co434      Co  0.03771481  0.95736051  0.68228618     0.73900
C435        C  0.13212183  0.02819103  0.66212651    -0.06100
C436        C  0.95126782  0.10282844  0.76210884    -0.05700
N437        N  0.09787269  0.90392229  0.77732453    -0.25200
N438        N  0.94126056  0.09025390  0.69719172    -0.46000
H439        H  0.15773623  0.12306205  0.74622736     0.07700
C440        C  0.13719126  0.82872872  0.69848516    -0.06100
Cl441      Cl  0.04009788  0.96189351  0.72952065    -0.49100
C442        C  0.91805088  0.84007838  0.67460342     0.43400
H443        H  0.14254798  0.91298269  0.81262361     0.07600
N444        N  0.13478566  0.89072223  0.66670940    -0.45800
C445        C  0.20864930  0.82633389  0.66235767    -0.12400
C446        C  0.24788493  0.80789393  0.65221426    -0.14000
C447        C  0.86472696  0.76887565  0.64693726    -0.12400
C448        C  0.88725487  0.80420899  0.65862750    -0.14000
C449        C  0.40282166  0.63309334  0.66601003    -0.12400
C450        C  0.38390818  0.67141696  0.65531775    -0.14000
C451        C  0.72870049  0.63056256  0.64503880    -0.12400
C452        C  0.69346977  0.60701940  0.65634218    -0.14000
C453        C  0.66590903  0.28439581  0.66490706    -0.12400
C454        C  0.68546750  0.24570623  0.65483691    -0.14000
C455        C  0.86503250  0.09594429  0.66708810    -0.12400
C456        C  0.82552022  0.11417671  0.65726171    -0.14000
C457        C  0.21037562  0.15061713  0.64401964    -0.12400
C458        C  0.18811062  0.11444004  0.65500913    -0.14000
C459        C  0.37676539  0.31375819  0.66023719    -0.12400
C460        C  0.34234278  0.29129038  0.64810405    -0.14000
C461        C  0.34760839  0.63092421  0.81631404    -0.12400
C462        C  0.38417172  0.60889942  0.80538374    -0.14000
C463        C  0.18718612  0.80209087  0.80140780    -0.12400
C464        C  0.20914328  0.76613723  0.81283328    -0.14000
C465        C  0.39107794  0.24628789  0.80769216    -0.12400
C466        C  0.40823271  0.28664579  0.79796725    -0.14000
C467        C  0.22025130  0.08893219  0.79372542    -0.12400
C468        C  0.25979070  0.10557958  0.80435930    -0.14000
C469        C  0.89646724  0.12318116  0.80283075    -0.12400
C470        C  0.87244252  0.15713161  0.81476321    -0.14000
C471        C  0.69669497  0.31223502  0.80309969    -0.12400
C472        C  0.73131082  0.28957562  0.81509204    -0.14000
C473        C  0.69592832  0.67018766  0.80505236    -0.12400
C474        C  0.67611172  0.63217639  0.79457206    -0.14000
C475        C  0.83132640  0.80737592  0.80679032    -0.12400
C476        C  0.86881798  0.82906309  0.79669019    -0.14000
C477        C  0.46141012  0.10284282  0.90708913    -0.12500
C478        C  0.44777134  0.05017228  0.91368338     0.09600
C479        C  0.40875221  0.02334646  0.89921946    -0.12500
C480        C  0.38389571  0.04864078  0.87838544    -0.12500
C481        C  0.39796224  0.10121555  0.87136686     0.09600
C482        C  0.43691195  0.12806939  0.88610024    -0.12500
H483        H  0.49180898  0.12398827  0.91789646     0.13600
H484        H  0.39809772  0.98249571  0.90388188     0.13600
H485        H  0.35428469  0.02658521  0.86750734     0.13600
H486        H  0.44868560  0.16855183  0.88136047     0.13600
C487        C  0.61708852  0.81347067  0.90129959    -0.12500
C488        C  0.64383375  0.85292251  0.91543264     0.09600
C489        C  0.69682546  0.86601011  0.90931047    -0.12500
C490        C  0.72237584  0.84094057  0.88867822    -0.12500
C491        C  0.69529966  0.80220508  0.87398229     0.09600
C492        C  0.64269504  0.78805100  0.88082112    -0.12500
H493        H  0.57605251  0.80319803  0.90584561     0.13600
H494        H  0.71779608  0.89656006  0.92010579     0.13600
H495        H  0.76298230  0.85249463  0.88399623     0.13600
H496        H  0.62067027  0.75850482  0.86988244     0.13600
C497        C  0.12103670  0.31181421  0.55660145    -0.12500
C498        C  0.13908073  0.36241987  0.54897461     0.09600
C499        C  0.18532060  0.38392854  0.56009298    -0.12500
C500        C  0.21353046  0.35499588  0.57861458    -0.12500
C501        C  0.19582361  0.30403882  0.58638684     0.09600
C502        C  0.14907427  0.28287755  0.57520825    -0.12500
H503        H  0.08534872  0.29478465  0.54808337     0.13600
H504        H  0.19967753  0.42297024  0.55427888     0.13600
H505        H  0.24920677  0.37262972  0.58682534     0.13600
H506        H  0.13419744  0.24387919  0.58074112     0.13600
C507        C  0.96579601  0.60332546  0.56364771    -0.12500
C508        C  0.94208676  0.56178402  0.54954271     0.09600
C509        C  0.88808850  0.54935599  0.55388851    -0.12500
C510        C  0.85821708  0.57787478  0.57211718    -0.12500
C511        C  0.88158111  0.61989753  0.58622345     0.09600
C512        C  0.93581023  0.63227964  0.58171443    -0.12500
H513        H  0.00736613  0.61363560  0.56046372     0.13600
H514        H  0.86906680  0.51759137  0.54307195     0.13600
H515        H  0.81665446  0.56723326  0.57501137     0.13600
H516        H  0.95527669  0.66409780  0.59229558     0.13600
C517        C  0.11570887  0.61197736  0.90263193    -0.12500
C518        C  0.13393199  0.56274064  0.91205562     0.09600
C519        C  0.18173723  0.54125987  0.90241453    -0.12500
C520        C  0.21114945  0.56878069  0.88369485    -0.12500
C521        C  0.19322302  0.61837083  0.87417055     0.09600
C522        C  0.14495276  0.63947270  0.88384373    -0.12500
H523        H  0.07893622  0.62916795  0.90992627     0.13600
H524        H  0.19642219  0.50332772  0.90955331     0.13600
H525        H  0.24794482  0.55113984  0.87670675     0.13600
H526        H  0.12979419  0.67743216  0.87700483     0.13600
C527        C  0.88347528  0.38113970  0.90584867    -0.12500
C528        C  0.93486238  0.36551783  0.91358001     0.09600
C529        C  0.95773675  0.31937540  0.90291854    -0.12500
C530        C  0.92969750  0.28922168  0.88468520    -0.12500
C531        C  0.87819024  0.30475742  0.87666077     0.09600
C532        C  0.85541842  0.35113829  0.88752426    -0.12500
H533        H  0.86513864  0.41649421  0.91405348     0.13600
H534        H  0.99725808  0.30661407  0.90884267     0.13600
H535        H  0.94862557  0.25393193  0.87675541     0.13600
H536        H  0.81591543  0.36438215  0.88185694     0.13600
C537        C  0.70519317  0.05065240  0.58402787    -0.12500
C538        C  0.68968158  0.10329458  0.59011634     0.09600
C539        C  0.65084553  0.12850814  0.57474760    -0.12500
C540        C  0.62761099  0.10139109  0.55401190    -0.12500
C541        C  0.64250414  0.04856091  0.54844773     0.09600
C542        C  0.68157895  0.02347594  0.56347611    -0.12500
H543        H  0.73481213  0.02994905  0.59547557     0.13600
H544        H  0.63820239  0.16905954  0.57881833     0.13600
H545        H  0.59732656  0.12117122  0.54257627     0.13600
H546        H  0.69327904  0.98260722  0.55944385     0.13600
C547        C  0.39409495  0.87280202  0.55333051    -0.12500
C548        C  0.44429293  0.85357423  0.54561412     0.09600
C549        C  0.46697114  0.80997212  0.55847454    -0.12500
C550        C  0.44028152  0.78636348  0.57915365    -0.12500
C551        C  0.39048539  0.80622468  0.58749871     0.09600
C552        C  0.36741111  0.84940192  0.57414082    -0.12500
H553        H  0.37633294  0.90676169  0.54365081     0.13600
H554        H  0.50590220  0.79499550  0.55281260     0.13600
H555        H  0.45929669  0.75322565  0.58892109     0.13600
H556        H  0.32909646  0.86559806  0.57995492     0.13600
C557        C  0.43267017  0.13419622  0.07258605    -0.12500
C558        C  0.38971594  0.11001633  0.08570621     0.09600
C559        C  0.37583856  0.05699303  0.07942383    -0.12500
C560        C  0.40482221  0.02860651  0.06088151    -0.12500
C561        C  0.44788811  0.05277148  0.04813584     0.09600
C562        C  0.46136535  0.10585205  0.05391770    -0.12500
H563        H  0.44434280  0.17496700  0.07681692     0.13600
H564        H  0.34310437  0.03704788  0.08911263     0.13600
H565        H  0.39369470  0.98776479  0.05642961     0.13600
H566        H  0.49425489  0.12516447  0.04403551     0.13600
C567        C  0.38061026  0.25776570  0.14715118    -0.12400
C568        C  0.40349093  0.29341798  0.15833020    -0.14000
C569        C  0.14897389  0.28501324  0.38633669    -0.12500
C570        C  0.19007326  0.31103810  0.37263807     0.09600
C571        C  0.20580836  0.36254003  0.38057795    -0.12500
C572        C  0.18042918  0.38768674  0.40133399    -0.12500
C573        C  0.13927491  0.36167849  0.41473440     0.09600
C574        C  0.12397106  0.31004179  0.40722502    -0.12500
H575        H  0.13588734  0.24532751  0.38086045     0.13600
H576        H  0.23709678  0.38386808  0.37047561     0.13600
H577        H  0.19236835  0.42778025  0.40676218     0.13600
H578        H  0.09194573  0.28961141  0.41723982     0.13600
C579        C  0.33210560  0.30276334  0.30737577    -0.12400
C580        C  0.37229968  0.31894138  0.29710272    -0.14000
C581        C  0.66541367  0.12927630  0.39107424    -0.12500
C582        C  0.71096423  0.10869679  0.37859481     0.09600
C583        C  0.72846395  0.05679044  0.38498854    -0.12500
C584        C  0.70039307  0.02589723  0.40292447    -0.12500
C585        C  0.65458157  0.04640944  0.41491971     0.09600
C586        C  0.63760890  0.09844695  0.40910713    -0.12500
H587        H  0.65093508  0.16908176  0.38677892     0.13600
H588        H  0.76336437  0.03959659  0.37583326     0.13600
H589        H  0.71432873  0.98599477  0.40746533     0.13600
H590        H  0.60262897  0.11502409  0.41847621     0.13600
C591        C  0.69226131  0.29453600  0.30672741    -0.12400
C592        C  0.71484940  0.25935675  0.31839490    -0.14000
C593        C  0.14968600  0.63177308  0.07751764    -0.12500
C594        C  0.19380790  0.60584254  0.08885385     0.09600
C595        C  0.21101083  0.55680886  0.07838554    -0.12500
C596        C  0.18410504  0.53377046  0.05756357    -0.12500
C597        C  0.13974878  0.55938504  0.04665044     0.09600
C598        C  0.12297826  0.60876462  0.05658311    -0.12500
H599        H  0.13534344  0.66957134  0.08498682     0.13600
H600        H  0.24470599  0.53562459  0.08656325     0.13600
H601        H  0.19722661  0.49539102  0.05023336     0.13600
H602        H  0.08846493  0.62879257  0.04849482     0.13600
C603        C  0.33658863  0.60100901  0.15341647    -0.12400
C604        C  0.37532835  0.58192184  0.16375214    -0.14000
C605        C  0.21233984  0.09590222  0.16211807    -0.12400
C606        C  0.24702058  0.11813433  0.15000584    -0.14000
C607        C  0.19339946  0.16906739  0.30779701    -0.12400
C608        C  0.17519008  0.12907013  0.29827738    -0.14000
C609        C  0.88944981  0.10335736  0.30338751    -0.12400
C610        C  0.85436295  0.12550961  0.31528653    -0.14000
C611        C  0.18521447  0.77851607  0.16853105    -0.12400
C612        C  0.20328469  0.74019006  0.15739630    -0.14000
C613        C  0.87175460  0.35111373  0.07859942    -0.12500
C614        C  0.89763635  0.30685327  0.08982502     0.09600
C615        C  0.94665448  0.28967255  0.07932093    -0.12500
C616        C  0.96977799  0.31689030  0.05859949    -0.12500
C617        C  0.94422514  0.36150485  0.04787969     0.09600
C618        C  0.89482352  0.37810525  0.05781046    -0.12500
H619        H  0.83393837  0.36542885  0.08606885     0.13600
H620        H  0.96772746  0.25581313  0.08740041     0.13600
H621        H  0.00806392  0.30373034  0.05116163     0.13600
H622        H  0.87473038  0.41262647  0.04977678     0.13600
C623        C  0.92242395  0.12766751  0.16567327    -0.12400
C624        C  0.90265748  0.16627716  0.15555182    -0.14000
C625        C  0.76268857  0.29886579  0.15782334    -0.12400
C626        C  0.72413453  0.31839213  0.16812883    -0.14000
C627        C  0.44555129  0.77361260  0.38185032    -0.12500
C628        C  0.39384336  0.79115800  0.37507034     0.09600
C629        C  0.37380096  0.83790187  0.38671578    -0.12500
C630        C  0.40421314  0.86584947  0.40487432    -0.12500
C631        C  0.45541126  0.84794194  0.41168283     0.09600
C632        C  0.47604830  0.80181888  0.39996352    -0.12500
H633        H  0.46246180  0.73798939  0.37323698     0.13600
H634        H  0.33431476  0.85272594  0.38200741     0.13600
H635        H  0.38761991  0.90124615  0.41385856     0.13600
H636        H  0.51542905  0.78731171  0.40512401     0.13600
C637        C  0.20089987  0.80327221  0.30825207    -0.12400
C638        C  0.23693932  0.77990008  0.31896056    -0.14000
C639        C  0.39409456  0.60556096  0.30387862    -0.12400
C640        C  0.37207103  0.64123688  0.31544871    -0.14000
C641        C  0.62423357  0.81067419  0.06161465    -0.12500
C642        C  0.64720249  0.85501543  0.04936285     0.09600
C643        C  0.69992862  0.86954830  0.05547503    -0.12500
C644        C  0.72900669  0.84059834  0.07384994    -0.12500
C645        C  0.70606505  0.79617644  0.08635690     0.09600
C646        C  0.65334403  0.78146210  0.07984066    -0.12500
H647        H  0.58380433  0.79851412  0.05692199     0.13600
H648        H  0.71852573  0.90330548  0.04597871     0.13600
H649        H  0.76947046  0.85306257  0.07824740     0.13600
H650        H  0.63422907  0.74763699  0.08901963     0.13600
C651        C  0.71650595  0.64929962  0.14855103    -0.12400
C652        C  0.69375083  0.61425089  0.16033664    -0.14000
C653        C  0.85561303  0.78452852  0.14716649    -0.12400
C654        C  0.89149609  0.80693397  0.15853463    -0.14000
C655        C  0.94695395  0.61510322  0.37857404    -0.12500
C656        C  0.89203922  0.60759037  0.37403297     0.09600
C657        C  0.86239436  0.57479566  0.39074978    -0.12500
C658        C  0.88744709  0.54952708  0.41144975    -0.12500
C659        C  0.94244878  0.55641699  0.41551921     0.09600
C660        C  0.97197927  0.58947060  0.39907099    -0.12500
H661        H  0.97089526  0.63979419  0.36592630     0.13600
H662        H  0.81998641  0.56849350  0.38774524     0.13600
H663        H  0.86431602  0.52383338  0.42399136     0.13600
H664        H  0.01457571  0.59478830  0.40196115     0.13600
C665        C  0.75266905  0.61007225  0.30852513    -0.12400
C666        C  0.71433629  0.59003240  0.29845581    -0.14000
C667        C  0.89155564  0.74277956  0.30675921    -0.12400
C668        C  0.91061564  0.78118719  0.29637692    -0.14000
loop_ 
_geom_bond_atom_site_label_1 
_geom_bond_atom_site_label_2 
_geom_bond_distance 
_geom_bond_site_symmetry_2 
_ccdc_geom_bond_type 
C1            N2   1.355       .  A
C1            N6   1.352       .  A
C1          C667   1.427       .  S
N2            C3   1.359       .  A
C3            N4   1.360       .  A
C3          C656   1.476       .  S
N4            C5   1.357       .  A
C5            N6   1.353       .  A
C5          C665   1.428       .  S
C7            N8   1.364       .  A
C7           N12   1.363       .  A
C7          C645   1.494       .  S
N8            C9   1.360       .  A
C9           N10   1.359       .  A
C9          C653   1.446       .  S
N10          C11   1.359       .  A
C11          N12   1.360       .  A
C11         C651   1.446       .  S
C13          N14   1.358       .  A
C13          N18   1.359       .  A
C13         C640   1.440       .  S
N14          C15   1.358       .  A
C15          N16   1.359       .  A
C15         C638   1.443       .  S
N16          C17   1.363       .  A
C17          N18   1.361       .  A
C17         C628   1.491       .  S
C19          N20   1.362       .  A
C19          N24   1.363       .  A
C19         C614   1.489       .  S
N20          C21   1.357       .  A
C21          N22   1.354       .  A
C21         C625   1.435       .  S
N22          C23   1.355       .  A
C23          N24   1.360       .  A
C23         C624   1.436       .  S
C25          N43   1.346       .  A
C25         C637   1.443       .  S
C25          C62   1.463       .  S
N26          N43   1.324       .  A
N26          N48   1.319       .  A
N26         Co63   2.077       .  S
C27          N52   1.339       .  A
C27          C65   1.453       .  S
C27          H72   1.082       .  S
H28          C69   1.081       .  S
C29          N53   1.346       .  A
C29          C33   1.463       .  S
C29          H58   1.082   1_655  S
Co30         N48   2.098       .  S
Co30         N38   2.074   1_455  S
Co30         N70   2.071   1_565  S
Co30         N46   2.093   1_465  S
Co30        Cl74   2.461       .  S
N31          C69   1.340       .  A
N31          N38   1.323       .  A
N31         Co32   2.091       .  S
Co32         N35   2.079       .  S
Co32         N52   2.074   1_565  S
Co32         N39   2.097   1_565  S
Co32        Cl74   2.445   1_655  S
C33          N71   1.347       .  A
C33         C654   1.445       .  S
N34          N41   1.324       .  A
N34          N64   1.324       .  A
N34         Co67   2.083       .  S
N35          N53   1.319       .  A
N35          N71   1.324       .  A
N36          C65   1.351       .  A
N36          N46   1.327       .  A
H37          C62   1.082       .  S
N38          N59   1.322       .  A
N39          N57   1.322       .  A
N39          N44   1.326       .  A
C40          N44   1.350       .  A
C40         C623   1.437       .  S
C40          C68   1.452       .  S
N41          C56   1.343       .  A
N41         Co63   2.100       .  S
C42          N70   1.338       .  A
C42          C45   1.449       .  S
C42          H76   1.082       .  S
C45          N66   1.350       .  A
C45         C608   1.434       .  S
N46          N52   1.319       .  A
N47          C73   1.339       .  A
N47          N49   1.319       .  A
N47         Co63   2.072   1_545  S
N48          C62   1.347       .  A
N49          N77   1.327       .  A
N49         Co67   2.091   1_545  S
H50          C73   1.082       .  S
H51          C68   1.081   1_455  S
N53         Co67   2.098   1_655  S
N54          N66   1.327       .  A
N54          N70   1.322       .  A
N54         Co63   2.102   1_545  S
C55          N59   1.344       .  A
C55         C668   1.427       .  S
C55          C69   1.454       .  S
C56          C75   1.459       .  S
C56          H60   1.082       .  S
N57          C68   1.339       .  A
N57         Co67   2.079   1_645  S
C61          N77   1.350       .  A
C61         C605   1.438       .  S
C61          C73   1.453       .  S
Co63        Cl74   2.445       .  S
N64          C75   1.346       .  A
C65         C609   1.439       .  S
Co67        Cl74   2.459       .  S
C75         C611   1.438       .  S
C78          N79   1.363       .  A
C78          N83   1.363       .  A
C78         C594   1.490       .  S
N79          C80   1.358       .  A
C80          N81   1.355       .  A
C80         C603   1.437       .  S
N81          C82   1.355       .  A
C82          N83   1.359       .  A
C82         C612   1.438       .  S
C84          N85   1.357       .  A
C84          N89   1.357       .  A
C84         C610   1.439       .  S
N85          C86   1.361       .  A
C86          N87   1.363       .  A
C86         C582   1.489       .  S
N87          C88   1.360       .  A
C88          N89   1.357       .  A
C88         C592   1.442       .  S
C90          N91   1.364       .  A
C90          N95   1.362       .  A
C90         C570   1.490       .  S
N91          C92   1.360       .  A
C92          N93   1.354       .  A
C92         C579   1.438       .  S
N93          C94   1.354       .  A
C94          N95   1.358       .  A
C94         C607   1.434       .  S
C96          N97   1.362       .  A
C96         N101   1.362       .  A
C96         C558   1.487       .  S
N97          C98   1.358       .  A
C98          N99   1.357       .  A
C98         C567   1.439       .  S
N99         C100   1.357       .  A
C100        N101   1.358       .  A
C100        C606   1.438       .  S
C102        N120   1.348       .  A
C102        C666   1.429       .  S
C102        C139   1.449       .  S
N103        N120   1.325       .  A
N103        N125   1.323       .  A
N103       Co140   2.091       .  S
C104        N129   1.344       .  A
C104        C142   1.460       .  S
C104        H149   1.081       .  S
H105        C146   1.082       .  S
C106        N130   1.339       .  A
C106        C110   1.452       .  S
C106        H135   1.082       .  S
Co107       N125   2.076       .  S
Co107       N115   2.097       .  S
Co107       N147   2.090       .  S
Co107       N123   2.078       .  S
Co107      Cl151   2.461       .  S
N108        C146   1.338       .  A
N108        N115   1.319       .  A
N108       Co109   2.076       .  S
Co109       N112   2.099       .  S
Co109       N129   2.103       .  S
Co109       N116   2.078       .  S
Co109      Cl151   2.447       .  S
C110        N148   1.350       .  A
C110        C626   1.436       .  S
N111        N118   1.319       .  A
N111        N141   1.329       .  A
N111       Co144   2.101       .  S
N112        N130   1.323       .  A
N112        N148   1.327       .  A
N113        C142   1.345       .  A
N113        N123   1.324       .  A
H114        C139   1.082       .  S
N115        N136   1.329       .  A
N116        N134   1.320       .  A
N116        N121   1.324       .  A
C117        N121   1.347       .  A
C117        C568   1.440       .  S
C117        C145   1.460       .  S
N118        C133   1.340       .  A
N118       Co140   2.078       .  S
C119        N147   1.344       .  A
C119        C122   1.460       .  S
C119        H153   1.082       .  S
C122        N143   1.347       .  A
C122        C639   1.440       .  S
N123        N129   1.323       .  A
N124        C150   1.342       .  A
N124        N126   1.322       .  A
N124       Co140   2.094       .  S
N125        C139   1.338       .  A
N126        N154   1.325       .  A
N126       Co144   2.083       .  S
H127        C150   1.081       .  S
H128        C145   1.082       .  S
N130       Co144   2.081       .  S
N131        N143   1.324       .  A
N131        N147   1.319       .  A
N131       Co140   2.080       .  S
C132        N136   1.352       .  A
C132        C591   1.442       .  S
C132        C146   1.452       .  S
C133        C152   1.454       .  S
C133        H137   1.082       .  S
N134        C145   1.344       .  A
N134       Co144   2.092       .  S
C138        N154   1.347       .  A
C138        C604   1.437       .  S
C138        C150   1.457       .  S
Co140      Cl151   2.446       .  S
N141        C152   1.353       .  A
C142        C580   1.439       .  S
Co144      Cl151   2.461       .  S
C152        C652   1.446       .  S
N155        C160   1.353       .  A
N155        C159   1.354       .  A
N155        H187   1.031       .  S
N156        C163   1.353       .  A
N156        C164   1.351       .  A
N157        C162   1.356       .  A
N157        C161   1.355       .  A
N157        H188   1.034       .  S
N158        C165   1.353       .  A
N158        C166   1.353       .  A
C159        C167   1.387       .  A
C159        C175   1.417   1_565  A
C160        C176   1.418       .  A
C160        C168   1.388       .  A
C161        C169   1.388       .  A
C161        C178   1.422   1_565  A
C162        C177   1.422       .  A
C162        C170   1.387       .  A
C163        C175   1.415       .  A
C163        C171   1.386       .  A
C164        C178   1.417       .  A
C164        C172   1.388       .  A
C165        C173   1.386       .  A
C165        C176   1.416       .  A
C166        C174   1.387       .  A
C166        C177   1.419       .  A
C167        H179   1.082   1_565  S
C167        C168   1.374       .  A
C168        H180   1.082       .  S
C169        H181   1.082       .  S
C169        C170   1.378       .  A
C170        H182   1.082       .  S
C171        H183   1.082       .  S
C171        C172   1.372       .  A
C172        H184   1.082       .  S
C173        H185   1.082       .  S
C173        C174   1.373       .  A
C174        H186   1.082       .  S
C175        C541   1.485       .  S
C176        C548   1.484       .  S
C177        C631   1.489       .  S
C178        C585   1.486       .  S
N189        C194   1.354       .  A
N189        C193   1.354       .  A
N189        H221   1.032       .  S
N190        C197   1.354   1_556  A
N190        C198   1.353       .  A
N191        C196   1.355   1_455  A
N191        C195   1.355       .  A
N191        H222   1.029       .  S
N192        C199   1.353   1_556  A
N192        C200   1.353       .  A
C193        C201   1.388       .  A
C193        C209   1.420       .  A
C194        C210   1.419   1_455  A
C194        C202   1.387       .  A
C195        C203   1.388       .  A
C195        C212   1.423       .  A
C196        C211   1.423       .  A
C196        C204   1.388   1_655  A
C197        C209   1.418       .  A
C197        C205   1.386   1_554  A
C198        C212   1.421       .  A
C198        C206   1.388       .  A
C199        C207   1.386   1_554  A
C199        C210   1.417       .  A
C200        C208   1.388       .  A
C200        C211   1.420       .  A
C201        H213   1.082       .  S
C201        C202   1.374       .  A
C202        H214   1.082   1_455  S
C203        H215   1.082       .  S
C203        C204   1.378       .  A
C204        H216   1.082   1_455  S
C205        H217   1.082   1_556  S
C205        C206   1.374       .  A
C206        H218   1.082       .  S
C207        H219   1.082   1_556  S
C207        C208   1.373       .  A
C208        H220   1.082       .  S
C209        C597   1.487       .  S
C210        C617   1.487       .  S
C211        C528   1.488       .  S
C212        C518   1.490       .  S
N223        C228   1.351       .  A
N223        C227   1.354       .  A
N223        H255   1.034       .  S
N224        C231   1.354       .  A
N224        C232   1.351       .  A
N225        C230   1.357       .  A
N225        C229   1.353       .  A
N225        H256   1.034       .  S
N226        C233   1.351       .  A
N226        C234   1.353       .  A
C227        C235   1.387       .  A
C227        C243   1.415       .  A
C228        C244   1.416   1_455  A
C228        C236   1.388       .  A
C229        C237   1.389       .  A
C229        C246   1.421       .  A
C230        C245   1.420   1_455  A
C230        C238   1.386       .  A
C231        C243   1.415       .  A
C231        C239   1.385       .  A
C232        C246   1.418       .  A
C232        C240   1.389       .  A
C233        C241   1.387       .  A
C233        C244   1.415       .  A
C234        C242   1.386       .  A
C234        C245   1.416       .  A
C235        H247   1.082       .  S
C235        C236   1.374       .  A
C236        H248   1.082   1_455  S
C237        H249   1.082       .  S
C237        C238   1.377       .  A
C238        H250   1.082   1_455  S
C239        H251   1.082       .  S
C239        C240   1.374       .  A
C240        H252   1.082       .  S
C241        H253   1.082       .  S
C241        C242   1.372       .  A
C242        H254   1.082       .  S
C243        C573   1.489       .  S
C244        C659   1.479       .  S
C245        C508   1.492       .  S
C246        C498   1.481       .  S
N257        C262   1.352       .  A
N257        C261   1.355       .  A
N257        H289   1.032       .  S
N258        C265   1.355       .  A
N258        C266   1.352   1_556  A
N259        C264   1.357       .  A
N259        C263   1.354       .  A
N259        H290   1.032       .  S
N260        C267   1.351       .  A
N260        C268   1.353   1_556  A
C261        C269   1.387       .  A
C261        C277   1.418   1_565  A
C262        C278   1.418       .  A
C262        C270   1.388       .  A
C263        C271   1.388       .  A
C263        C280   1.423   1_565  A
C264        C279   1.423       .  A
C264        C272   1.387       .  A
C265        C277   1.417       .  A
C265        C273   1.385       .  A
C266        C280   1.420       .  A
C266        C274   1.388   1_554  A
C267        C275   1.387       .  A
C267        C278   1.415       .  A
C268        C276   1.387   1_554  A
C268        C279   1.417       .  A
C269        H281   1.082   1_565  S
C269        C270   1.374       .  A
C270        H282   1.082       .  S
C271        H283   1.082   1_565  S
C271        C272   1.379       .  A
C272        H284   1.082       .  S
C273        H285   1.082       .  S
C273        C274   1.374       .  A
C274        H286   1.082   1_556  S
C275        H287   1.082       .  S
C275        C276   1.372       .  A
C276        H288   1.082   1_556  S
C277        C478   1.492       .  S
C278        C488   1.479       .  S
C279        C642   1.493       .  S
C280        C561   1.485       .  S
C291        N292   1.354       .  A
C291        N296   1.355       .  A
C291        C473   1.430       .  S
N292        C293   1.355       .  A
C293        N294   1.356       .  A
C293        C475   1.431       .  S
N294        C295   1.360       .  A
C295        N296   1.359       .  A
C295        C491   1.480       .  S
C297        N298   1.358       .  A
C297        N302   1.358       .  A
C297        C472   1.440       .  S
N298        C299   1.362       .  A
C299        N300   1.363       .  A
C299        C531   1.490       .  S
N300        C301   1.359       .  A
C301        N302   1.358       .  A
C301        C470   1.444       .  S
C303        N304   1.364       .  A
C303        N308   1.364       .  A
C303        C481   1.493       .  S
N304        C305   1.361       .  A
C305        N306   1.354       .  A
C305        C465   1.439       .  S
N306        C307   1.354       .  A
C307        N308   1.359       .  A
C307        C468   1.437       .  S
C309        N310   1.359       .  A
C309        N314   1.358       .  A
C309        C464   1.443       .  S
N310        C311   1.362       .  A
C311        N312   1.363       .  A
C311        C521   1.492       .  S
N312        C313   1.359       .  A
C313        N314   1.358       .  A
C313        C461   1.441       .  S
C315        N316   1.361       .  A
C315        N320   1.361       .  A
C315        C501   1.485       .  S
N316        C317   1.357       .  A
C317        N318   1.356       .  A
C317        C460   1.436       .  S
N318        C319   1.356       .  A
C319        N320   1.357       .  A
C319        C457   1.436       .  S
C321        N322   1.361       .  A
C321        N326   1.362       .  A
C321        C538   1.485       .  S
N322        C323   1.356       .  A
C323        N324   1.352       .  A
C323        C456   1.430       .  S
N324        C325   1.353       .  A
C325        N326   1.359       .  A
C325        C454   1.432       .  S
C327        N345   1.346       .  A
C327        C462   1.440       .  S
C327        C364   1.462       .  S
N328        N345   1.323       .  A
N328        N350   1.319       .  A
N328       Co365   2.076       .  S
C329        N354   1.340       .  A
C329        C367   1.454       .  S
C329        H374   1.082       .  S
H330        C371   1.081       .  S
C331        N355   1.346       .  A
C331        C335   1.462       .  S
C331        H360   1.082       .  S
Co332       N350   2.092       .  S
Co332       N340   2.078       .  S
Co332       N372   2.077       .  S
Co332       N348   2.091       .  S
Co332      Cl376   2.459       .  S
N333        C371   1.340       .  A
N333        N340   1.323       .  A
N333       Co334   2.088       .  S
Co334       N337   2.084       .  S
Co334       N354   2.079       .  S
Co334       N341   2.094       .  S
Co334      Cl376   2.447       .  S
C335        N373   1.348       .  A
C335        C452   1.445       .  S
N336        N343   1.323       .  A
N336        N366   1.324       .  A
N336       Co369   2.080       .  S
N337        N355   1.319       .  A
N337        N373   1.325       .  A
N338        C367   1.351       .  A
N338        N348   1.327       .  A
H339        C364   1.082       .  S
N340        N361   1.323       .  A
N341        N359   1.322       .  A
N341        N346   1.326       .  A
C342        N346   1.349       .  A
C342        C453   1.432       .  S
C342        C370   1.450       .  S
N343        C358   1.342       .  A
N343       Co365   2.098       .  S
C344        N372   1.339       .  A
C344        C347   1.450       .  S
C344        H378   1.081       .  S
C347        N368   1.352       .  A
C347        C466   1.439       .  S
N348        N354   1.319       .  A
N349        C375   1.339       .  A
N349        N351   1.319       .  A
N349       Co365   2.072       .  S
N350        C364   1.345       .  A
N351        N379   1.326       .  A
N351       Co369   2.090       .  S
H352        C375   1.082       .  S
H353        C370   1.081       .  S
N355       Co369   2.094       .  S
N356        N368   1.328       .  A
N356        N372   1.322       .  A
N356       Co365   2.105       .  S
C357        N361   1.345       .  A
C357        C474   1.430       .  S
C357        C371   1.454       .  S
C358        C377   1.456       .  S
C358        H362   1.081       .  S
N359        C370   1.338       .  A
N359       Co369   2.076       .  S
C363        N379   1.350       .  A
C363        C459   1.436       .  S
C363        C375   1.453       .  S
Co365      Cl376   2.446       .  S
N366        C377   1.346       .  A
C367        C471   1.441       .  S
Co369      Cl376   2.459       .  S
C377        C449   1.435       .  S
C380        N381   1.362       .  A
C380        N385   1.363       .  A
C380        C511   1.492       .  S
N381        C382   1.359       .  A
C382        N383   1.359       .  A
C382        C447   1.445       .  S
N383        C384   1.359       .  A
C384        N385   1.360       .  A
C384        C451   1.445       .  S
C386        N387   1.362       .  A
C386        N391   1.361       .  A
C386        C551   1.486       .  S
N387        C388   1.359       .  A
C388        N389   1.355       .  A
C388        C446   1.434       .  S
N389        C390   1.354       .  A
C390        N391   1.356       .  A
C390        C450   1.435       .  S
C392        N410   1.347       .  A
C392        C476   1.432       .  S
C392        C429   1.453       .  S
N393        N410   1.325       .  A
N393        N415   1.323       .  A
N393       Co430   2.091   1_655  S
C394        N419   1.344       .  A
C394        C432   1.459       .  S
C394        H439   1.082       .  S
H395        C436   1.082       .  S
C396        N420   1.337       .  A
C396        C400   1.448       .  S
C396        H425   1.082   1_545  S
Co397       N415   2.079   1_455  S
Co397       N405   2.100   1_465  S
Co397       N437   2.096       .  S
Co397       N413   2.080   1_565  S
Co397      Cl441   2.461       .  S
N398        C436   1.340       .  A
N398        N405   1.319       .  A
N398       Co399   2.077   1_655  S
Co399       N402   2.097   1_455  S
Co399       N419   2.100       .  S
Co399       N406   2.076       .  S
Co399      Cl441   2.446   1_545  S
C400        N438   1.349       .  A
C400        C455   1.430       .  S
N401        N408   1.319       .  A
N401        N431   1.329       .  A
N401       Co434   2.100   1_655  S
N402        N420   1.323       .  A
N402        N438   1.326       .  A
N403        C432   1.345       .  A
N403        N413   1.324       .  A
H404        C429   1.082       .  S
N405        N426   1.329       .  A
N406        N424   1.319       .  A
N406        N411   1.323       .  A
C407        N411   1.346       .  A
C407        C458   1.437       .  S
C407        C435   1.460       .  S
N408        C423   1.339       .  A
N408       Co430   2.077   1_655  S
C409        N437   1.345       .  A
C409        C412   1.462       .  S
C409        H443   1.082       .  S
C412        N433   1.347       .  A
C412        C463   1.443       .  S
N413        N419   1.323       .  A
N414        C440   1.342       .  A
N414        N416   1.322       .  A
N414       Co430   2.095       .  S
N415        C429   1.340       .  A
N416        N444   1.324       .  A
N416       Co434   2.077       .  S
H417        C440   1.081       .  S
H418        C435   1.082       .  S
N420       Co434   2.072   1_645  S
N421        N433   1.324       .  A
N421        N437   1.320       .  A
N421       Co430   2.079       .  S
C422        N426   1.352       .  A
C422        C469   1.444       .  S
C422        C436   1.454       .  S
C423        C442   1.454       .  S
C423        H427   1.082       .  S
N424        C435   1.344       .  A
N424       Co434   2.091   1_545  S
C428        N444   1.345       .  A
C428        C445   1.434       .  S
C428        C440   1.457       .  S
Co430      Cl441   2.443       .  S
N431        C442   1.353       .  A
C432        C467   1.437       .  S
Co434      Cl441   2.462       .  S
C442        C448   1.445       .  S
C445        C446   1.205       .  T
C447        C448   1.211       .  T
C449        C450   1.205       .  T
C451        C452   1.211       .  T
C453        C454   1.203       .  T
C455        C456   1.202       .  T
C457        C458   1.206       .  T
C459        C460   1.206       .  T
C461        C462   1.209       .  T
C463        C464   1.210       .  T
C465        C466   1.208       .  T
C467        C468   1.207       .  T
C469        C470   1.211       .  T
C471        C472   1.209       .  T
C473        C474   1.202       .  T
C475        C476   1.203       .  T
C477        H483   1.083       .  S
C477        C478   1.403       .  A
C477        C482   1.403       .  A
C478        C479   1.403       .  A
C479        H484   1.083   1_545  S
C479        C480   1.402       .  A
C480        H485   1.083       .  S
C480        C481   1.409       .  A
C481        C482   1.409       .  A
C482        H486   1.083       .  S
C487        H493   1.083       .  S
C487        C488   1.400       .  A
C487        C492   1.396       .  A
C488        C489   1.401       .  A
C489        H494   1.083       .  S
C489        C490   1.397       .  A
C490        H495   1.083       .  S
C490        C491   1.407       .  A
C491        C492   1.407       .  A
C492        H496   1.083       .  S
C497        H503   1.083       .  S
C497        C498   1.401       .  A
C497        C502   1.398       .  A
C498        C499   1.400       .  A
C499        H504   1.083       .  S
C499        C500   1.397       .  A
C500        H505   1.083       .  S
C500        C501   1.408       .  A
C501        C502   1.408       .  A
C502        H506   1.083       .  S
C507        H513   1.083   1_655  S
C507        C508   1.403       .  A
C507        C512   1.403       .  A
C508        C509   1.403       .  A
C509        H514   1.083       .  S
C509        C510   1.402       .  A
C510        H515   1.083       .  S
C510        C511   1.408       .  A
C511        C512   1.410       .  A
C512        H516   1.083       .  S
C517        H523   1.083       .  S
C517        C518   1.402       .  A
C517        C522   1.401       .  A
C518        C519   1.402       .  A
C519        H524   1.083       .  S
C519        C520   1.401       .  A
C520        H525   1.083       .  S
C520        C521   1.409       .  A
C521        C522   1.409       .  A
C522        H526   1.083       .  S
C527        H533   1.083       .  S
C527        C528   1.402       .  A
C527        C532   1.401       .  A
C528        C529   1.402       .  A
C529        H534   1.083       .  S
C529        C530   1.400       .  A
C530        H535   1.083       .  S
C530        C531   1.408       .  A
C531        C532   1.410       .  A
C532        H536   1.083       .  S
C537        H543   1.083       .  S
C537        C538   1.408       .  A
C537        C542   1.398       .  A
C538        C539   1.408       .  A
C539        H544   1.083       .  S
C539        C540   1.400       .  A
C540        H545   1.083       .  S
C540        C541   1.402       .  A
C541        C542   1.400       .  A
C542        H546   1.083   1_545  S
C547        H553   1.083       .  S
C547        C548   1.402       .  A
C547        C552   1.400       .  A
C548        C549   1.400       .  A
C549        H554   1.083       .  S
C549        C550   1.397       .  A
C550        H555   1.083       .  S
C550        C551   1.408       .  A
C551        C552   1.408       .  A
C552        H556   1.083       .  S
C557        H563   1.083       .  S
C557        C558   1.408       .  A
C557        C562   1.400       .  A
C558        C559   1.408       .  A
C559        H564   1.083       .  S
C559        C560   1.399       .  A
C560        H565   1.083   1_545  S
C560        C561   1.401       .  A
C561        C562   1.402       .  A
C562        H566   1.083       .  S
C567        C568   1.208       .  T
C569        H575   1.083       .  S
C569        C570   1.409       .  A
C569        C574   1.401       .  A
C570        C571   1.408       .  A
C571        H576   1.083       .  S
C571        C572   1.401       .  A
C572        H577   1.083       .  S
C572        C573   1.402       .  A
C573        C574   1.402       .  A
C574        H578   1.083       .  S
C579        C580   1.208       .  T
C581        H587   1.083       .  S
C581        C582   1.408       .  A
C581        C586   1.399       .  A
C582        C583   1.410       .  A
C583        H588   1.083       .  S
C583        C584   1.400       .  A
C584        H589   1.083   1_545  S
C584        C585   1.401       .  A
C585        C586   1.402       .  A
C586        H590   1.083       .  S
C591        C592   1.209       .  T
C593        H599   1.083       .  S
C593        C594   1.409       .  A
C593        C598   1.401       .  A
C594        C595   1.408       .  A
C595        H600   1.083       .  S
C595        C596   1.399       .  A
C596        H601   1.083       .  S
C596        C597   1.401       .  A
C597        C598   1.402       .  A
C598        H602   1.083       .  S
C603        C604   1.207       .  T
C605        C606   1.207       .  T
C607        C608   1.205       .  T
C609        C610   1.208       .  T
C611        C612   1.207       .  T
C613        H619   1.083       .  S
C613        C614   1.409       .  A
C613        C618   1.400       .  A
C614        C615   1.408       .  A
C615        H620   1.083       .  S
C615        C616   1.400       .  A
C616        H621   1.083   1_655  S
C616        C617   1.402       .  A
C617        C618   1.401       .  A
C618        H622   1.083       .  S
C623        C624   1.206       .  T
C625        C626   1.206       .  T
C627        H633   1.083       .  S
C627        C628   1.410       .  A
C627        C632   1.402       .  A
C628        C629   1.408       .  A
C629        H634   1.083       .  S
C629        C630   1.400       .  A
C630        H635   1.083       .  S
C630        C631   1.402       .  A
C631        C632   1.402       .  A
C632        H636   1.083       .  S
C637        C638   1.210       .  T
C639        C640   1.208       .  T
C641        H647   1.083       .  S
C641        C642   1.402       .  A
C641        C646   1.402       .  A
C642        C643   1.403       .  A
C643        H648   1.083       .  S
C643        C644   1.403       .  A
C644        H649   1.083       .  S
C644        C645   1.409       .  A
C645        C646   1.409       .  A
C646        H650   1.083       .  S
C651        C652   1.212       .  T
C653        C654   1.212       .  T
C655        H661   1.083       .  S
C655        C656   1.405       .  A
C655        C660   1.394       .  A
C656        C657   1.407       .  A
C657        H662   1.083       .  S
C657        C658   1.398       .  A
C658        H663   1.083       .  S
C658        C659   1.401       .  A
C659        C660   1.400       .  A
C660        H664   1.083   1_655  S
C665        C666   1.201       .  T
C667        C668   1.201       .  T
