geometry optimzed in LAMMPS
_audit_creation_date              2020-12-01 
_audit_creation_method            'lammps2cif' 
_symmetry_space_group_name_H-M    'P1' 
_symmetry_Int_Tables_number       1 
_symmetry_cell_setting            triclinic 
loop_ 
_symmetry_equiv_pos_as_xyz 
  x,y,z 
_cell_length_a                    100.44691137 
_cell_length_b                    100.91217048641143 
_cell_length_c                    46.347897791862806 
_cell_angle_alpha                 89.99291816197334 
_cell_angle_beta                  90.4041270451273 
_cell_angle_gamma                 120.25420249940385 
loop_ 
_atom_site_label 
_atom_site_type_symbol 
_atom_site_fract_x 
_atom_site_fract_y 
_atom_site_fract_z 
_atom_site_charge 
In1        In  0.75109590  0.91535102  0.08439761     1.36900
C2          C  0.75982096  0.90578592  0.03802240     0.78100
O3          O  0.76380284  0.91563866  0.12515347    -0.60400
O4          O  0.74543462  0.89427412  0.11019326    -0.51300
C5          C  0.76486905  0.94549352  0.09612577     0.70700
O6          O  0.77178975  0.93953431  0.08385372    -0.46200
C7          C  0.72148078  0.90550253  0.07245059     0.75400
O8          O  0.75625551  0.91607249  0.03668551    -0.58000
O9          O  0.72587658  0.90372626  0.09699111    -0.48100
O10         O  0.76022300  0.90138488  0.06319992    -0.54400
C11         C  0.75609877  0.90128619  0.12851011     0.85600
O12         O  0.75113102  0.93605085  0.10275630    -0.56300
O13         O  0.73216059  0.91249023  0.05465796    -0.59600
In14       In  0.82320172  0.08216100  0.14692263     1.36900
C15         C  0.84222385  0.09792452  0.19039347     0.78100
O16         O  0.84495313  0.09276915  0.12072484    -0.60400
O17         O  0.82502481  0.09130464  0.10167433    -0.51300
C18         C  0.81147322  0.05177945  0.13829120     0.70700
O19         O  0.82570352  0.06104513  0.14108544    -0.46200
C20         C  0.80114519  0.08794823  0.16254835     0.75400
O21         O  0.83546098  0.08344638  0.18907976    -0.58000
O22         O  0.80628159  0.09018973  0.13711764    -0.48100
O23         O  0.83933781  0.10411539  0.16958902    -0.54400
C24         C  0.83914277  0.09564890  0.09919645     0.85600
O25         O  0.80333310  0.05794027  0.14048199    -0.56300
O26         O  0.80669690  0.08205736  0.17923934    -0.59600
In27       In  0.08394349  0.25032882  0.33676958     1.36900
C28         C  0.09846951  0.24547826  0.29396646     0.78100
O29         O  0.08582205  0.26770596  0.30451379    -0.60400
O30         O  0.09459951  0.27548191  0.34686934    -0.51300
C31         C  0.05323545  0.23524835  0.34385656     0.70700
O32         O  0.06041995  0.22851193  0.33685268    -0.46200
C33         C  0.09563706  0.24523010  0.38465237     0.75400
O34         O  0.08392878  0.23846208  0.29543837    -0.58000
O35         O  0.09292966  0.25608793  0.38241281    -0.48100
O36         O  0.10540356  0.25475410  0.31434289    -0.54400
C37         C  0.09259558  0.27891956  0.32165003     0.85600
O38         O  0.06164300  0.24951762  0.34667201    -0.56300
O39         O  0.09191580  0.23666094  0.36281190    -0.59600
In40       In  0.91656376  0.17155258  0.39766832     1.36900
C41         C  0.90216906  0.15052065  0.43855206     0.78100
O42         O  0.91500435  0.18534789  0.43413547    -0.60400
O43         O  0.90775465  0.18809614  0.39254874    -0.51300
C44         C  0.94712830  0.18448518  0.38915597     0.70700
O45         O  0.93820182  0.17019139  0.38980454    -0.46200
C46         C  0.90322306  0.15775144  0.34770553     0.75400
O47         O  0.91668221  0.15880976  0.43794808    -0.58000
O48         O  0.90724613  0.17157419  0.35266244    -0.48100
O49         O  0.89525510  0.15274928  0.41801650    -0.54400
C50         C  0.90933478  0.19167462  0.41896496     0.85600
O51         O  0.94052052  0.19208891  0.39316942    -0.56300
O52         O  0.90639411  0.15135564  0.36772798    -0.59600
In53       In  0.16999322  0.91218369  0.35419996     1.36900
C54         C  0.14938956  0.89650341  0.31329651     0.78100
O55         O  0.18626830  0.90333249  0.36067770    -0.60400
O56         O  0.18458659  0.91108001  0.31883050    -0.51300
C57         C  0.18535588  0.94280576  0.36033170     0.70700
O58         O  0.19132015  0.93461617  0.36450395    -0.46200
C59         C  0.15437303  0.89966556  0.40271124     0.75400
O60         O  0.15589699  0.91094921  0.31505438    -0.58000
O61         O  0.16782614  0.90217500  0.39861575    -0.48100
O62         O  0.15333411  0.89028353  0.33247821    -0.54400
C63         C  0.19045286  0.90515629  0.33466528     0.85600
O64         O  0.17126671  0.93537329  0.35360131    -0.56300
O65         O  0.14916526  0.90421491  0.38266547    -0.59600
In66       In  0.26088104  0.08107720  0.39116855     1.36900
C67         C  0.25651720  0.09654334  0.43318070     0.78100
O68         O  0.27613467  0.07967171  0.42506196    -0.60400
O69         O  0.28647928  0.09167219  0.38628922    -0.51300
C70         C  0.24376158  0.05060518  0.38314221     0.70700
O71         O  0.23803156  0.05883909  0.38920791    -0.46200
C72         C  0.25775902  0.09290639  0.34175040     0.75400
O73         O  0.24845404  0.08212958  0.43084731    -0.58000
O74         O  0.26847952  0.09006323  0.34599867    -0.48100
O75         O  0.26641996  0.10295778  0.41372668    -0.54400
C76         C  0.28836912  0.08763580  0.41106905     0.85600
O77         O  0.25821447  0.05788953  0.38120182    -0.56300
O78         O  0.24846480  0.08930506  0.36230832    -0.59600
In79       In  0.25787585  0.17012306  0.14384493     1.36900
C80         C  0.25417476  0.14979054  0.18380487     0.78100
O81         O  0.24463431  0.15034189  0.11318761    -0.60400
O82         O  0.26653491  0.16836435  0.10027366    -0.51300
C83         C  0.24051944  0.18287827  0.13566271     0.70700
O84         O  0.23501035  0.16935500  0.14465238    -0.46200
C85         C  0.28492724  0.19132628  0.16523519     0.75400
O86         O  0.24623608  0.15630989  0.18345246    -0.58000
O87         O  0.28298927  0.18777403  0.13879891    -0.48100
O88         O  0.26349520  0.15328034  0.16324649    -0.54400
C89         C  0.25490153  0.15557698  0.09416735     0.85600
O90         O  0.25482885  0.18991489  0.13167980    -0.56300
O91         O  0.27286180  0.18479531  0.18019159    -0.59600
In92       In  0.16888023  0.24713360  0.08408735     1.36900
C93         C  0.14841013  0.24313423  0.04345535     0.78100
O94         O  0.14814694  0.23492674  0.11253219    -0.60400
O95         O  0.16813233  0.25424299  0.12969773    -0.51300
C96         C  0.18378427  0.23174982  0.09268894     0.70700
O97         O  0.16971496  0.22500996  0.08563729    -0.46200
C98         C  0.18958457  0.27440530  0.06439317     0.75400
O99         O  0.15470192  0.23497293  0.04435428    -0.58000
O100        O  0.18421635  0.27242974  0.08959383    -0.48100
O101        O  0.15223917  0.25275407  0.06367365    -0.54400
C102        C  0.15438129  0.24383177  0.13366181     0.85600
O103        O  0.19004113  0.24606622  0.09473469    -0.56300
O104        O  0.18465051  0.26234876  0.04944924    -0.59600
In105      In  0.08125209  0.82348599  0.10242334     1.36900
C106        C  0.09743579  0.84326578  0.06124950     0.78100
O107        O  0.08840659  0.84433883  0.13054686    -0.60400
O108        O  0.09137077  0.82644914  0.14709861    -0.51300
C109        C  0.05067600  0.80888465  0.10919123     0.70700
O110        O  0.05808642  0.82246956  0.10011535    -0.46200
C111        C  0.08739393  0.80203168  0.08500200     0.75400
O112        O  0.08291626  0.83688522  0.06224708    -0.58000
O113        O  0.08922294  0.80663323  0.11083203    -0.48100
O114        O  0.10350338  0.83964076  0.08134875    -0.54400
C115        C  0.09300536  0.83952000  0.15115751     0.85600
O116        O  0.05882307  0.80297144  0.11447083    -0.56300
O117        O  0.08196483  0.80804247  0.06829186    -0.59600
In118      In  0.91271613  0.73374519  0.14268491     1.36900
C119        C  0.89628559  0.73752431  0.18317365     0.78100
O120        O  0.90351636  0.74506461  0.11410969    -0.60400
O121        O  0.90544766  0.72675308  0.09627007    -0.51300
C122        C  0.94318534  0.75192676  0.13736044     0.70700
O123        O  0.93427417  0.75720140  0.14009946    -0.46200
C124        C  0.90695015  0.70659834  0.16178268     0.75400
O125        O  0.91080383  0.74563611  0.18227648    -0.58000
O126        O  0.90434430  0.70855288  0.13585431    -0.48100
O127        O  0.89025161  0.72780524  0.16307894    -0.54400
C128        C  0.90157631  0.73673804  0.09251203     0.85600
O129        O  0.93658422  0.73754367  0.13774866    -0.56300
O130        O  0.91287282  0.71852901  0.17723961    -0.59600
In131      In  0.82506791  0.73455100  0.39390728     1.36900
C132        C  0.84513465  0.73980821  0.43625714     0.78100
O133        O  0.81028906  0.70892875  0.38871724    -0.60400
O134        O  0.80818026  0.71929700  0.42701444    -0.51300
C135        C  0.81193018  0.75147254  0.38414501     0.70700
O136        O  0.82553382  0.75715753  0.39345039    -0.46200
C137        C  0.84019536  0.73770796  0.34504103     0.75400
O138        O  0.83713102  0.74623536  0.43544479    -0.58000
O139        O  0.82676229  0.72670292  0.34934949    -0.48100
O140        O  0.84300398  0.73096559  0.41534469    -0.54400
C141        C  0.80419473  0.70708497  0.41319550     0.85600
O142        O  0.80504929  0.73720389  0.38007395    -0.56300
O143        O  0.84575988  0.74728305  0.36540817    -0.59600
In144      In  0.75333205  0.82791647  0.32768513     1.36900
C145        C  0.76513791  0.84652771  0.28249425     0.78100
O146        O  0.72794949  0.81489514  0.33935487    -0.60400
O147        O  0.73403439  0.81504761  0.29576599    -0.51300
C148        C  0.76714209  0.81156192  0.33734811     0.70700
O149        O  0.77460048  0.82581856  0.33297051    -0.46200
C150        C  0.75626223  0.84482087  0.37425793     0.75400
O151        O  0.75814832  0.83213711  0.28045226    -0.58000
O152        O  0.75829512  0.83347175  0.37520903    -0.48100
O153        O  0.76747169  0.85155220  0.30801282    -0.54400
C154        C  0.72339033  0.81057928  0.31383430     0.85600
O155        O  0.75274600  0.80568801  0.33625461    -0.56300
O156        O  0.75216894  0.84712579  0.34986753    -0.59600
In157      In  0.75148372  0.16262957  0.26307762     1.36900
C158        C  0.76755342  0.18378608  0.22401924     0.78100
O159        O  0.75753778  0.18176749  0.29458532    -0.60400
O160        O  0.76483231  0.16578883  0.30391778    -0.51300
C161        C  0.72169938  0.14917035  0.27659125     0.70700
O162        O  0.72864114  0.16217042  0.26479097    -0.46200
C163        C  0.75555003  0.14058895  0.24115068     0.75400
O164        O  0.75297516  0.17651741  0.22384414    -0.58000
O165        O  0.75003411  0.14725587  0.22645376    -0.48100
O166        O  0.77369893  0.18026646  0.24410281    -0.54400
C167        C  0.76458253  0.17763709  0.31158486     0.85600
O168        O  0.72979026  0.14304170  0.28031282    -0.56300
O169        O  0.75852441  0.14488317  0.26714140    -0.59600
In170      In  0.58669089  0.07586267  0.33527696     1.36900
C171        C  0.57120312  0.08051822  0.37615616     0.78100
O172        O  0.57753494  0.08747996  0.30726228    -0.60400
O173        O  0.57933361  0.06917377  0.28891006    -0.51300
C174        C  0.61722978  0.09382148  0.32958508     0.70700
O175        O  0.60830956  0.09912900  0.33121056    -0.46200
C176        C  0.57858696  0.04770846  0.35256274     0.75400
O177        O  0.58574817  0.08729451  0.37628713    -0.58000
O178        O  0.57686825  0.05064556  0.32677235    -0.48100
O179        O  0.56474762  0.07174683  0.35491244    -0.54400
C180        C  0.57544279  0.07917616  0.28552958     0.85600
O181        O  0.61061700  0.07944512  0.33127872    -0.56300
O182        O  0.58508751  0.05923379  0.36903012    -0.59600
In183      In  0.49878095  0.07580360  0.08305135     1.36900
C184        C  0.51899253  0.08128346  0.12507515     0.78100
O185        O  0.48320858  0.06048855  0.11810433    -0.60400
O186        O  0.48263620  0.05036054  0.07760639    -0.51300
C187        C  0.48497822  0.09200581  0.07097392     0.70700
O188        O  0.49845060  0.09817083  0.08121277    -0.46200
C189        C  0.51480046  0.07894163  0.03528187     0.75400
O190        O  0.51174518  0.08851287  0.12342073    -0.58000
O191        O  0.50110201  0.06824450  0.03843674    -0.48100
O192        O  0.51599178  0.07161302  0.10522761    -0.54400
C193        C  0.47769773  0.04840323  0.10311699     0.85600
O194        O  0.47857114  0.07772123  0.06780176    -0.56300
O195        O  0.52019915  0.08810269  0.05625707    -0.59600
In196      In  0.41658721  0.15923358  0.01476922     1.36900
C197        C  0.42103633  0.17869157  0.47258095     0.78100
O198        O  0.40006593  0.14316276  0.47827020    -0.60400
O199        O  0.39101778  0.14314114  0.01996120    -0.51300
C200        C  0.43343987  0.14582911  0.02380393     0.70700
O201        O  0.43931712  0.16017166  0.02339945    -0.46200
C202        C  0.41812896  0.17281833  0.06482920     0.75400
O203        O  0.42803380  0.17121670  0.47403678    -0.58000
O204        O  0.40814327  0.15897030  0.06012099    -0.48100
O205        O  0.41175265  0.17609869  0.49283056    -0.54400
C206        C  0.38772006  0.13784051  0.49234386     0.85600
O207        O  0.41920704  0.13846960  0.01862432    -0.56300
O208        O  0.42724849  0.17940977  0.04432233    -0.59600
In209      In  0.41216696  0.24575037  0.26426768     1.36900
C210        C  0.41565319  0.22894379  0.22440784     0.78100
O211        O  0.42587764  0.23872051  0.29243171    -0.60400
O212        O  0.40484039  0.23570859  0.30862427    -0.51300
C213        C  0.42924319  0.27608775  0.27330318     0.70700
O214        O  0.43465091  0.26862742  0.26127433    -0.46200
C215        C  0.38487768  0.24006087  0.24404298     0.75400
O216        O  0.42332579  0.24344137  0.22432435    -0.58000
O217        O  0.38678675  0.23667459  0.26935274    -0.48100
O218        O  0.40638461  0.22309897  0.24503066    -0.54400
C219        C  0.41632872  0.23403141  0.31272353     0.85600
O220        O  0.41533305  0.26810735  0.28035738    -0.56300
O221        O  0.39705195  0.24701358  0.22945800    -0.59600
In222      In  0.49477810  0.41295132  0.31959384     1.36900
C223        C  0.51439892  0.42872686  0.36182298     0.78100
O224        O  0.51546665  0.42174179  0.29121689    -0.60400
O225        O  0.49586834  0.42202379  0.27464243    -0.51300
C226        C  0.48123244  0.38267305  0.31113179     0.70700
O227        O  0.49554927  0.39094677  0.31517822    -0.46200
C228        C  0.47340701  0.41847438  0.33895272     0.75400
O229        O  0.50795797  0.41428690  0.36013033    -0.58000
O230        O  0.47863272  0.42195796  0.31363336    -0.48100
O231        O  0.51118144  0.43496986  0.34155064    -0.54400
C232        C  0.50953356  0.42511107  0.27054850     0.85600
O233        O  0.47400690  0.38983051  0.31158995    -0.56300
O234        O  0.47877223  0.41176861  0.35389086    -0.59600
In235      In  0.58266114  0.50262319  0.07015191     1.36900
C236        C  0.56634670  0.48237561  0.11044217     0.78100
O237        O  0.58396322  0.51896251  0.10465878    -0.60400
O238        O  0.57347961  0.51871971  0.06454974    -0.51300
C239        C  0.61287060  0.51540750  0.06155929     0.70700
O240        O  0.60502241  0.50232502  0.07263324    -0.46200
C241        C  0.57104826  0.48757268  0.02067330     0.75400
O242        O  0.58088681  0.48903553  0.10994844    -0.58000
O243        O  0.57339531  0.50089153  0.02517415    -0.48100
O244        O  0.56029263  0.48588123  0.09014150    -0.54400
C245        C  0.57695275  0.52407000  0.08983596     0.85600
O246        O  0.60539239  0.52199174  0.05570142    -0.56300
O247        O  0.57485836  0.48201069  0.04126075    -0.59600
In248      In  0.75027700  0.58340801  0.02342514     1.36900
C249        C  0.76892877  0.57957507  0.48662196     0.78100
O250        O  0.75125667  0.59828912  0.48881674    -0.60400
O251        O  0.75755084  0.60824548  0.02878732    -0.51300
C252        C  0.71968174  0.56676019  0.02798429     0.70700
O253        O  0.72704912  0.58113570  0.02681343    -0.46200
C254        C  0.76126268  0.58124473  0.07455535     0.75400
O255        O  0.75443732  0.57121007  0.48770209    -0.58000
O256        O  0.76004326  0.59268662  0.06776172    -0.48100
O257        O  0.77477894  0.58980881  0.50586856    -0.54400
C258        C  0.75843403  0.61080675  0.50244324     0.85600
O259        O  0.72788985  0.56061916  0.02650453    -0.56300
O260        O  0.75646039  0.57086139  0.05568456    -0.59600
In261      In  0.83972406  0.58433567  0.27382004     1.36900
C262        C  0.81867813  0.57980570  0.23431341     0.78100
O263        O  0.81947882  0.57154406  0.30335507    -0.60400
O264        O  0.83822087  0.59248351  0.31855549    -0.51300
C265        C  0.85390531  0.56831457  0.28246648     0.70700
O266        O  0.84069184  0.56242744  0.27108407    -0.46200
C267        C  0.86080656  0.61061041  0.25037628     0.75400
O268        O  0.82430552  0.57109970  0.23632758    -0.58000
O269        O  0.85633300  0.60966969  0.27608326    -0.48100
O270        O  0.82345602  0.59034057  0.25297685    -0.54400
C271        C  0.82502458  0.58121900  0.32353592     0.85600
O272        O  0.85977015  0.58223376  0.28912909    -0.56300
O273        O  0.85495030  0.59801375  0.23696718    -0.59600
In274      In  0.92373273  0.50185535  0.33108049     1.36900
C275        C  0.91844630  0.48128860  0.37188481     0.78100
O276        O  0.91097456  0.48136001  0.30200557    -0.60400
O277        O  0.93116977  0.50073932  0.28611401    -0.51300
C278        C  0.90793020  0.51643624  0.32369505     0.70700
O279        O  0.90142259  0.50209274  0.32619913    -0.46200
C280        C  0.95190269  0.52162240  0.34959722     0.75400
O281        O  0.91182136  0.48913623  0.37180756    -0.58000
O282        O  0.94910249  0.51773428  0.32336183    -0.48100
O283        O  0.92728623  0.48373646  0.35089735    -0.54400
C284        C  0.92028846  0.48726124  0.28152127     0.85600
O285        O  0.92235839  0.52328528  0.32577713    -0.56300
O286        O  0.94028513  0.51586634  0.36576444    -0.59600
In287      In  0.84496767  0.25097044  0.02008637     1.36900
C288        C  0.82074704  0.23235129  0.47583923     0.78100
O289        O  0.85654725  0.24959191  0.48311573    -0.60400
O290        O  0.86113442  0.24194741  0.02621818    -0.51300
C291        C  0.85818518  0.28116389  0.02977328     0.70700
O292        O  0.84517220  0.27358913  0.01764979    -0.46200
C293        C  0.82875367  0.23935415  0.06784797     0.75400
O294        O  0.82671039  0.24673861  0.47794669    -0.58000
O295        O  0.82332822  0.24229548  0.04581831    -0.48100
O296        O  0.82444028  0.22616613  0.49555224    -0.54400
C297        C  0.86164454  0.24247193  0.49753243     0.85600
O298        O  0.86445478  0.27343688  0.03598610    -0.56300
O299        O  0.84250682  0.24240445  0.06556603    -0.59600
In300      In  0.92699572  0.41729257  0.07864122     1.36900
C301        C  0.92088013  0.43149035  0.12005165     0.78100
O302        O  0.94334585  0.41737274  0.11207091    -0.60400
O303        O  0.95268813  0.42906456  0.07266090    -0.51300
C304        C  0.91051092  0.38699336  0.07240113     0.70700
O305        O  0.90425936  0.39505851  0.07474244    -0.46200
C306        C  0.92329432  0.42723178  0.02748399     0.75400
O307        O  0.91390402  0.41703758  0.11824364    -0.58000
O308        O  0.93274699  0.42264356  0.03137899    -0.48100
O309        O  0.93052952  0.43846920  0.10042222    -0.54400
C310        C  0.95522616  0.42533339  0.09722712     0.85600
O311        O  0.92498010  0.39437364  0.07366446    -0.56300
O312        O  0.91582909  0.42670059  0.04955761    -0.59600
In313      In  0.08052771  0.57894320  0.44453988     1.36900
C314        C  0.08629017  0.56368522  0.40478918     0.78100
O315        O  0.09427217  0.57277831  0.47453272    -0.60400
O316        O  0.07316362  0.57002139  0.48966441    -0.51300
C317        C  0.09545106  0.60925299  0.45270309     0.70700
O318        O  0.10225159  0.60212685  0.44571125    -0.46200
C319        C  0.05289362  0.57096117  0.42333579     0.75400
O320        O  0.09315122  0.57817412  0.40509133    -0.58000
O321        O  0.05495864  0.56762933  0.44860857    -0.48100
O322        O  0.07692533  0.55722122  0.42505991    -0.54400
C323        C  0.08479541  0.56873222  0.49488126     0.85600
O324        O  0.08109709  0.60095714  0.45516763    -0.56300
O325        O  0.06503875  0.57875657  0.40901083    -0.59600
In326      In  0.16012663  0.74609148  0.49681035     1.36900
C327        C  0.17953184  0.76224923  0.03496693     0.78100
O328        O  0.18097361  0.75312913  0.46901945    -0.60400
O329        O  0.16250765  0.75521613  0.45178272    -0.51300
C330        C  0.14574505  0.71582544  0.48838005     0.70700
O331        O  0.15921457  0.72326321  0.49866512    -0.46200
C332        C  0.13881496  0.75380366  0.01228214     0.75400
O333        O  0.17269340  0.74778214  0.03294571    -0.58000
O334        O  0.14407435  0.75532711  0.49160843    -0.48100
O335        O  0.17638831  0.76884997  0.01523407    -0.54400
C336        C  0.17571254  0.75697753  0.44793225     0.85600
O337        O  0.13967454  0.72380005  0.48275684    -0.56300
O338        O  0.14430581  0.74740103  0.02777149    -0.59600
In339      In  0.16508126  0.40718345  0.23022350     1.36900
C340        C  0.18674002  0.41139466  0.26850215     0.78100
O341        O  0.14725817  0.38227177  0.22393799    -0.60400
O342        O  0.15231008  0.39111392  0.26671933    -0.51300
C343        C  0.15061714  0.42344555  0.22644524     0.70700
O344        O  0.16475354  0.42953832  0.23241468    -0.46200
C345        C  0.17873763  0.41055853  0.17911622     0.75400
O346        O  0.17966102  0.41878112  0.26976604    -0.58000
O347        O  0.16614765  0.39880714  0.18548656    -0.48100
O348        O  0.18323713  0.40253178  0.24707437    -0.54400
C349        C  0.14482479  0.37958686  0.25058086     0.85600
O350        O  0.14390136  0.40915068  0.22302079    -0.56300
O351        O  0.18408246  0.42075184  0.19842897    -0.59600
In352      In  0.08367611  0.49432903  0.19280049     1.36900
C353        C  0.08947271  0.51531941  0.15266122     0.78100
O354        O  0.06702913  0.48007075  0.15820244    -0.60400
O355        O  0.05822992  0.47862550  0.20046578    -0.51300
C356        C  0.09978044  0.47989031  0.19840070     0.70700
O357        O  0.08542627  0.47300670  0.19488893    -0.46200
C358        C  0.08727774  0.50861153  0.24293941     0.75400
O359        O  0.09679553  0.50816997  0.15383060    -0.58000
O360        O  0.07698420  0.49480137  0.23901336    -0.48100
O361        O  0.07953789  0.51184128  0.17205034    -0.54400
C362        C  0.05540831  0.47441529  0.17436267     0.85600
O363        O  0.10611431  0.49428304  0.19849866    -0.56300
O364        O  0.09571426  0.51493640  0.22150140    -0.59600
In365      In  0.24780061  0.83398834  0.24696408     1.36900
C366        C  0.23217293  0.81331015  0.28723164     0.78100
O367        O  0.24706784  0.84907862  0.28174272    -0.60400
O368        O  0.23718907  0.84867373  0.24070823    -0.51300
C369        C  0.27842524  0.84859145  0.23942936     0.70700
O370        O  0.27055775  0.83436846  0.24397342    -0.46200
C371        C  0.23605361  0.81946293  0.19717852     0.75400
O372        O  0.24674231  0.82041095  0.28657605    -0.58000
O373        O  0.23979329  0.83327042  0.20115681    -0.48100
O374        O  0.22583550  0.81655165  0.26708679    -0.54400
C375        C  0.23987493  0.85373843  0.26626137     0.85600
O376        O  0.27074733  0.85529479  0.23947914    -0.56300
O377        O  0.23880700  0.81329990  0.21819960    -0.59600
In378      In  0.41494307  0.91901642  0.18427450     1.36900
C379        C  0.43038877  0.91549965  0.14106352     0.78100
O380        O  0.41452526  0.93591441  0.15326935    -0.60400
O381        O  0.42589883  0.94426445  0.19365088    -0.51300
C382        C  0.38437409  0.90314227  0.19279629     0.70700
O383        O  0.39166850  0.89693006  0.18333854    -0.46200
C384        C  0.42621195  0.91395072  0.23272646     0.75400
O385        O  0.41583337  0.90866813  0.14142977    -0.58000
O386        O  0.42420895  0.92521380  0.22949343    -0.48100
O387        O  0.43687846  0.92368371  0.16297390    -0.54400
C388        C  0.42223657  0.94735873  0.16953007     0.85600
O389        O  0.39260084  0.91730856  0.19732061    -0.56300
O390        O  0.42210068  0.90495688  0.21140952    -0.59600
In391      In  0.58848283  0.83497789  0.49658829     1.36900
C392        C  0.58460341  0.81625627  0.03582942     0.78100
O393        O  0.57528861  0.81295709  0.47148477    -0.60400
O394        O  0.59264791  0.83232239  0.44959558    -0.51300
C395        C  0.57240435  0.84952927  0.48926465     0.70700
O396        O  0.56599218  0.83535715  0.49408993    -0.46200
C397        C  0.61792030  0.85639377  0.01089681     0.75400
O398        O  0.57778511  0.82392496  0.03569548    -0.58000
O399        O  0.61367119  0.84922409  0.48549403    -0.48100
O400        O  0.59362373  0.81889740  0.01503903    -0.54400
C401        C  0.58246644  0.81831829  0.44836501     0.85600
O402        O  0.58687825  0.85627729  0.48958788    -0.56300
O403        O  0.60671782  0.85143446  0.02800525    -0.59600
In404      In  0.50494588  0.91799625  0.43332746     1.36900
C405        C  0.48471482  0.91381372  0.39197508     0.78100
O406        O  0.48381857  0.90640393  0.46065088    -0.60400
O407        O  0.50395602  0.92506880  0.47900649    -0.51300
C408        C  0.51857780  0.90120039  0.44115108     0.70700
O409        O  0.50419161  0.89518757  0.43837238    -0.46200
C410        C  0.52590665  0.94585210  0.41658143     0.75400
O411        O  0.49150811  0.90613426  0.39274031    -0.58000
O412        O  0.52083356  0.94302277  0.44204055    -0.48100
O413        O  0.48817864  0.92329546  0.41230471    -0.54400
C414        C  0.48993893  0.91510401  0.48206226     0.85600
O415        O  0.52585871  0.91555956  0.43915746    -0.56300
O416        O  0.52061938  0.93434873  0.40000145    -0.59600
In417      In  0.25309588  0.40333347  0.47947896     1.36900
C418        C  0.23572309  0.40706125  0.02155705     0.78100
O419        O  0.24425669  0.41482554  0.45063416    -0.60400
O420        O  0.24557808  0.39619142  0.43282398    -0.51300
C421        C  0.28386995  0.42002097  0.47539228     0.70700
O422        O  0.27536188  0.42582386  0.47452266    -0.46200
C423        C  0.24448490  0.37532040  0.99637477     0.75400
O424        O  0.25027037  0.41498414  0.02087117    -0.58000
O425        O  0.24361853  0.37801181  0.47314908    -0.48100
O426        O  0.22971308  0.39765051  0.00101804    -0.54400
C427        C  0.24180091  0.40626801  0.42918558     0.85600
O428        O  0.27673604  0.40571956  0.47876293    -0.56300
O429        O  0.25045941  0.38668818  0.01330541    -0.59600
In430      In  0.42157004  0.49186784  0.43578685     1.36900
C431        C  0.43710911  0.51185471  0.39467836     0.78100
O432        O  0.42929068  0.51295142  0.46292762    -0.60400
O433        O  0.43073541  0.49435208  0.48086918    -0.51300
C434        C  0.39123316  0.47782013  0.44494655     0.70700
O435        O  0.39836876  0.49060854  0.43244269    -0.46200
C436        C  0.42800110  0.47078248  0.41737307     0.75400
O437        O  0.42255721  0.50400609  0.39456044    -0.58000
O438        O  0.43196199  0.47682379  0.44207455    -0.48100
O439        O  0.44359736  0.50971815  0.41611292    -0.54400
C440        C  0.43312399  0.50777017  0.48413029     0.85600
O441        O  0.39953858  0.47236068  0.45238650    -0.56300
O442        O  0.42059922  0.47534921  0.40236574    -0.59600
In443      In  0.50785740  0.58200935  0.18495007     1.36900
C444        C  0.48785074  0.56637548  0.14350526     0.78100
O445        O  0.52358038  0.58252279  0.15009619    -0.60400
O446        O  0.52339129  0.57211519  0.19010103    -0.51300
C447        C  0.52190462  0.61210962  0.19548817     0.70700
O448        O  0.50813132  0.60463583  0.18669198    -0.46200
C449        C  0.49232955  0.56949859  0.23327104     0.75400
O450        O  0.49466439  0.58087900  0.14430969    -0.58000
O451        O  0.50614286  0.57294714  0.22991414    -0.48100
O452        O  0.49095617  0.56022630  0.16411927    -0.54400
C453        C  0.52850224  0.57530245  0.16470964     0.85600
O454        O  0.52839483  0.60430039  0.19813797    -0.56300
O455        O  0.48655589  0.57282400  0.21226912    -0.59600
In456      In  0.58855147  0.74844466  0.24623047     1.36900
C457        C  0.58039919  0.76152913  0.28703304     0.78100
O458        O  0.60720097  0.75434120  0.27949920    -0.60400
O459        O  0.61380367  0.75942584  0.23571665    -0.51300
C460        C  0.57300437  0.71775660  0.24084460     0.70700
O461        O  0.56669678  0.72577103  0.23872673    -0.46200
C462        C  0.58513599  0.75921026  0.19574362     0.75400
O463        O  0.57593225  0.74737407  0.28744952    -0.58000
O464        O  0.59501915  0.75516934  0.19960915    -0.48100
O465        O  0.58864019  0.76866304  0.26576262    -0.54400
C466        C  0.61803881  0.75995304  0.26155843     0.85600
O467        O  0.58719377  0.72532428  0.24641526    -0.56300
O468        O  0.57679156  0.75730897  0.21725782    -0.59600
C469        C  0.53422552  0.65134519  0.21121153     0.20800
C470        C  0.53289093  0.66444098  0.21473136    -0.39100
C471        C  0.54629463  0.67773628  0.22404005     0.19800
C472        C  0.56000302  0.67799598  0.22940309     0.22400
C473        C  0.56133696  0.66489212  0.22593306    -0.39600
C474        C  0.54792221  0.65159497  0.21667268     0.21200
N475        N  0.52317804  0.63729366  0.20255661    -0.32800
C476        C  0.52991490  0.62855656  0.20260453    -0.10400
C477        C  0.54531753  0.63706056  0.21127860    -0.29200
N478        N  0.57118492  0.69218724  0.23700541    -0.45800
C479        C  0.56454625  0.70102381  0.23633805    -0.05100
C480        C  0.54902171  0.69239781  0.22853867    -0.22500
H481        H  0.52223817  0.66432589  0.21032024     0.19400
H482        H  0.57205085  0.66505979  0.22993633     0.18200
H483        H  0.55347420  0.63309228  0.21350777     0.14400
H484        H  0.54095872  0.69643517  0.22561361     0.14300
H485        H  0.51176334  0.63382995  0.19723047     0.32500
H486        H  0.58270739  0.69573519  0.24156091     0.35200
C487        C  0.45061068  0.52291494  0.05035078     0.20800
C488        C  0.45782422  0.52333945  0.07649141    -0.39100
C489        C  0.46446737  0.53730443  0.09134263     0.19800
C490        C  0.46413364  0.55001003  0.08097185     0.22400
C491        C  0.45675001  0.54954004  0.05482718    -0.39600
C492        C  0.44998046  0.53546823  0.03997426     0.21200
N493        N  0.44413178  0.51118900  0.03160528    -0.32800
C494        C  0.43929431  0.51626660  0.00913197    -0.10400
C495        C  0.44262791  0.53131285  0.01353460    -0.29200
N496        N  0.47219886  0.56217358  0.09851753    -0.45800
C497        C  0.47752641  0.55698463  0.12012395    -0.05100
C498        C  0.47287118  0.54156909  0.11644976    -0.22500
H499        H  0.45851737  0.51360622  0.08438615     0.19400
H500        H  0.45659715  0.55945983  0.04636396     0.18200
H501        H  0.44045184  0.53839344  0.99893265     0.14400
H502        H  0.47578690  0.53458164  0.12981436     0.14300
H503        H  0.44337280  0.50051876  0.03365554     0.32500
H504        H  0.47422634  0.57330759  0.09568074     0.35200
C505        C  0.45120727  0.53404387  0.33052429     0.20800
C506        C  0.45032425  0.53945952  0.30308724    -0.39100
C507        C  0.46444448  0.54838479  0.28908605     0.19800
C508        C  0.47834407  0.55153617  0.30140703     0.22400
C509        C  0.47922764  0.54614096  0.32882893    -0.39600
C510        C  0.46513686  0.53732946  0.34290034     0.21200
N511        N  0.43942777  0.52488824  0.34779385    -0.32800
C512        C  0.44593165  0.52234378  0.37126588    -0.10400
C513        C  0.46193934  0.52996870  0.36910233    -0.29200
N514        N  0.49004283  0.55972132  0.28330532    -0.45800
C515        C  0.48357928  0.56185897  0.25932939    -0.05100
C516        C  0.46763352  0.55501663  0.26211583    -0.22500
H517        H  0.43943776  0.53675340  0.29322075     0.19400
H518        H  0.49006928  0.54845148  0.33833041     0.18200
H519        H  0.47007812  0.52971468  0.38420266     0.14400
H520        H  0.45945783  0.55455233  0.24622673     0.14300
H521        H  0.42768325  0.52033131  0.34356395     0.32500
H522        H  0.50168146  0.56340456  0.28682584     0.35200
C523        C  0.32321116  0.44798069  0.46174994     0.20800
C524        C  0.33557697  0.46199347  0.45215941    -0.39100
C525        C  0.35015259  0.46325567  0.45323840     0.19800
C526        C  0.35218159  0.45147883  0.46336542     0.22400
C527        C  0.33983480  0.43746637  0.47275949    -0.39600
C528        C  0.32527868  0.43615213  0.47140606     0.21200
N529        N  0.30822294  0.44380872  0.46244639    -0.32800
C530        C  0.30070450  0.42918566  0.47230790    -0.10400
C531        C  0.31094305  0.42399157  0.47810332    -0.29200
N532        N  0.36704058  0.45535931  0.46193377    -0.45800
C533        C  0.37457999  0.46964289  0.45056721    -0.05100
C534        C  0.36446001  0.47502381  0.44487895    -0.22500
H535        H  0.33394137  0.47115774  0.44417256     0.19400
H536        H  0.34143343  0.42819881  0.48025627     0.18200
H537        H  0.30824655  0.41281598  0.48597239     0.14400
H538        H  0.36717056  0.48595172  0.43566747     0.14300
H539        H  0.30335878  0.45038626  0.45609262     0.32500
H540        H  0.37175003  0.44859284  0.46792524     0.35200
C541        C  0.58033587  0.80258992  0.37837319     0.20800
C542        C  0.58392464  0.80289769  0.34915472    -0.39100
C543        C  0.57934985  0.78862561  0.33646090     0.19800
C544        C  0.57179537  0.77499745  0.35163989     0.22400
C545        C  0.56799906  0.77466285  0.38088870    -0.32400
C546        C  0.57252967  0.78899468  0.39360020     0.21200
N547        N  0.58457232  0.81473384  0.39579256    -0.32800
C548        C  0.57935690  0.80886921  0.42230503    -0.10400
C549        C  0.57165106  0.79285456  0.42180549    -0.29200
N550        N  0.57026693  0.76323379  0.33535958    -0.45800
C551        C  0.57702795  0.76953653  0.30982804    -0.05100
C552        C  0.58257971  0.78526754  0.30961287    -0.22500
H553        H  0.59040353  0.81354238  0.33745913     0.19400
H554        H  0.56249327  0.76411677  0.39313148     0.18200
H555        H  0.56675389  0.78514210  0.43990918     0.14400
H556        H  0.58914440  0.79334711  0.29280491     0.14300
H557        H  0.59097161  0.82630907  0.39016641     0.32500
H558        H  0.56580545  0.75185807  0.34180884     0.35200
C559        C  0.58636416  0.78989150  0.08488482     0.20800
C560        C  0.59227685  0.78107361  0.09678036    -0.39100
C561        C  0.58733556  0.77555781  0.12479861     0.19800
C562        C  0.57717171  0.77850122  0.13961107     0.22400
C563        C  0.57125513  0.78727589  0.12771046    -0.39600
C564        C  0.57627136  0.79287411  0.09985348     0.21200
N565        N  0.59015741  0.79740331  0.05961485    -0.32800
C566        C  0.58253167  0.80530907  0.05868798    -0.10400
C567        C  0.57363958  0.80266346  0.08324842    -0.29200
N568        N  0.57482236  0.77265343  0.16633131    -0.45800
C569        C  0.58362185  0.76602740  0.16874830    -0.05100
C570        C  0.59159453  0.76755861  0.14326240    -0.22500
H571        H  0.60049357  0.77907883  0.08543835     0.19400
H572        H  0.56367227  0.78994934  0.13963712     0.18200
H573        H  0.56677081  0.80778602  0.08880101     0.14400
H574        H  0.59972668  0.76374287  0.13912833     0.14300
H575        H  0.59793454  0.79764085  0.04448022     0.32500
H576        H  0.56803937  0.77356208  0.18231402     0.35200
C577        C  0.54536816  0.86175610  0.47181471     0.20800
C578        C  0.53091565  0.86030627  0.46590682    -0.39100
C579        C  0.53115161  0.87391200  0.45816235     0.19800
C580        C  0.54476275  0.88783562  0.45636050     0.22400
C581        C  0.55916683  0.88926513  0.46208441    -0.39600
C582        C  0.55892127  0.87572140  0.46992457     0.21200
N583        N  0.54833178  0.85062504  0.47966476    -0.32800
C584        C  0.56388208  0.85759144  0.48274117    -0.10400
C585        C  0.57084784  0.87323343  0.47685050    -0.29200
N586        N  0.54194824  0.89912825  0.44946247    -0.45800
C587        C  0.52643082  0.89243618  0.44686369    -0.05100
C588        C  0.51926316  0.87668021  0.45201710    -0.22500
H589        H  0.52027511  0.84942960  0.46747771     0.19400
H590        H  0.56979548  0.90017121  0.46077985     0.18200
H591        H  0.58304079  0.88161566  0.47713977     0.14400
H592        H  0.50702643  0.86846544  0.45201124     0.14300
H593        H  0.54031519  0.83898570  0.48231578     0.32500
H594        H  0.55008345  0.91075835  0.44722476     0.35200
C595        C  0.45874787  0.91899613  0.09052897     0.20800
C596        C  0.47365086  0.92478758  0.07948905    -0.39100
C597        C  0.47447543  0.91967869  0.05176527     0.19800
C598        C  0.46143337  0.90952262  0.03627261     0.22400
C599        C  0.44651281  0.90374692  0.04729373    -0.39600
C600        C  0.44568635  0.90888975  0.07502866     0.21200
N601        N  0.45490360  0.92238757  0.11605240    -0.32800
C602        C  0.43928500  0.91441768  0.11690929    -0.10400
C603        C  0.43309607  0.90584755  0.09168373    -0.29200
N604        N  0.46564671  0.90525232  0.50964259    -0.45800
C605        C  0.48088285  0.91539250  0.00886154    -0.05100
C606        C  0.48704097  0.92354309  0.03446661    -0.22500
H607        H  0.48384945  0.93285317  0.09145676     0.19400
H608        H  0.43630030  0.89598009  0.03502737     0.18200
H609        H  0.42104132  0.89858151  0.08612131     0.14400
H610        H  0.49904148  0.93147255  0.03947743     0.14300
H611        H  0.46244929  0.92986134  0.13178559     0.32500
H612        H  0.45803987  0.89836337  0.49338931     0.35200
C613        C  0.46024953  0.90526865  0.33003571     0.20800
C614        C  0.45327165  0.89832079  0.30359836    -0.39100
C615        C  0.44531293  0.90458108  0.28933005     0.19800
C616        C  0.44444678  0.91683420  0.30058663     0.22400
C617        C  0.45133000  0.92370421  0.32699812    -0.39600
C618        C  0.45921266  0.91743488  0.34123655     0.21200
N619        N  0.46919399  0.90207588  0.34702974    -0.32800
C620        C  0.47384013  0.91231518  0.36908699    -0.10400
C621        C  0.46776240  0.92198887  0.36631772    -0.29200
N622        N  0.43708529  0.92130049  0.28223986    -0.45800
C623        C  0.43321893  0.91187998  0.25904328    -0.05100
C624        C  0.43804478  0.90119634  0.26269234    -0.22500
H625        H  0.45429327  0.88900297  0.29447653     0.19400
H626        H  0.45090843  0.93347726  0.33549143     0.18200
H627        H  0.46981337  0.93146219  0.38023222     0.14400
H628        H  0.43698665  0.89259827  0.24741852     0.14300
H629        H  0.47227594  0.89375658  0.34347395     0.32500
H630        H  0.43524199  0.93053064  0.28492155     0.35200
C631        C  0.31797181  0.87526657  0.22396271     0.20800
C632        C  0.33091140  0.88968241  0.21831974    -0.39100
C633        C  0.34437054  0.88960249  0.21066282     0.19800
C634        C  0.34487530  0.87617938  0.20851476     0.22400
C635        C  0.33195343  0.86176762  0.21441160    -0.39600
C636        C  0.31850948  0.86184890  0.22229745     0.21200
N637        N  0.30373968  0.87223935  0.23092275    -0.32800
C638        C  0.29512872  0.85678922  0.23380937    -0.10400
C639        C  0.30395926  0.84990214  0.22877534    -0.29200
N640        N  0.35906049  0.87921272  0.20097454    -0.45800
C641        C  0.36769268  0.89468898  0.19868226    -0.05100
C642        C  0.35892295  0.90155956  0.20452714    -0.22500
H643        H  0.33052555  0.90018927  0.21977186     0.19400
H644        H  0.33233114  0.85125961  0.21291661     0.18200
H645        H  0.30013232  0.83777617  0.22895713     0.14400
H646        H  0.36275726  0.91369003  0.20470222     0.14300
H647        H  0.30003176  0.88017124  0.23307635     0.32500
H648        H  0.36275738  0.87129141  0.19832961     0.35200
C649        C  0.22433525  0.40417158  0.36045296     0.20800
C650        C  0.21838350  0.39852580  0.33277168    -0.39100
C651        C  0.21104786  0.40553353  0.31886031     0.19800
C652        C  0.20960646  0.41714929  0.33164357     0.22400
C653        C  0.21553055  0.42276605  0.35925759    -0.39600
C654        C  0.22297479  0.41588266  0.37300254     0.21200
N655        N  0.23148773  0.39926055  0.37856970    -0.32800
C656        C  0.23469909  0.40799914  0.40268575    -0.10400
C657        C  0.22958927  0.41846769  0.39995705    -0.29200
N658        N  0.20137281  0.42127004  0.31473903    -0.45800
C659        C  0.19752347  0.41220349  0.29100557    -0.05100
C660        C  0.20344536  0.40233042  0.29267765    -0.22500
H661        H  0.21919595  0.38922744  0.32296408     0.19400
H662        H  0.21424071  0.43169255  0.36948820     0.18200
H663        H  0.23031242  0.42665114  0.41589436     0.14400
H664        H  0.20171540  0.39345258  0.27746438     0.14300
H665        H  0.23381076  0.39040616  0.37496896     0.32500
H666        H  0.19805723  0.42930272  0.31955464     0.35200
C667        C  0.19260028  0.40567870  0.11138122     0.20800
C668        C  0.19248085  0.39774356  0.08638301    -0.39100
C669        C  0.20663586  0.40365504  0.07211538     0.19800
C670        C  0.21992598  0.41645952  0.08203684     0.22400
C671        C  0.22000460  0.42449672  0.10685680    -0.39600
C672        C  0.20583293  0.41862533  0.12107122     0.21200
N673        N  0.18100549  0.40160374  0.13011504    -0.32800
C674        C  0.18689595  0.41199240  0.15193705    -0.10400
C675        C  0.20228569  0.42291819  0.14685653    -0.29200
N676        N  0.23201604  0.41935873  0.06534992    -0.45800
C677        C  0.22635496  0.40839672  0.04451211    -0.05100
C678        C  0.21056929  0.39840512  0.04801035    -0.22500
H679        H  0.18221926  0.38747171  0.07902731     0.19400
H680        H  0.23042924  0.43434598  0.11496642     0.18200
H681        H  0.21010290  0.43212025  0.16107949     0.14400
H682        H  0.20304950  0.38847679  0.03495308     0.14300
H683        H  0.16999131  0.39192574  0.12884588     0.32500
H684        H  0.24342008  0.42818526  0.06804561     0.35200
C685        C  0.11243555  0.45280933  0.20724171     0.20800
C686        C  0.11082107  0.43819231  0.20905685    -0.39100
C687        C  0.12437991  0.43789765  0.21496864     0.19800
C688        C  0.13848698  0.45115394  0.21886795     0.22400
C689        C  0.14010471  0.46580978  0.21700286    -0.39600
C690        C  0.12652149  0.46610967  0.21101209     0.21200
N691        N  0.10126157  0.45610793  0.20200289    -0.32800
C692        C  0.10822620  0.47161494  0.20239965    -0.10400
C693        C  0.12400331  0.47830060  0.20792036    -0.29200
N694        N  0.14962792  0.44773199  0.22397195    -0.45800
C695        C  0.14255632  0.43219730  0.22319081    -0.05100
C696        C  0.12680690  0.42567172  0.21765633    -0.22500
H697        H  0.09980929  0.42780389  0.20601805     0.19400
H698        H  0.15112069  0.47620164  0.21994830     0.18200
H699        H  0.13242511  0.49039879  0.20972253     0.14400
H700        H  0.11831720  0.41360827  0.21552818     0.14300
H701        H  0.08956875  0.44827718  0.19856544     0.32500
H702        H  0.16134709  0.45547565  0.22734261     0.35200
C703        C  0.21702919  0.78915221  0.34898983     0.20800
C704        C  0.21740699  0.78257798  0.37549723    -0.39100
C705        C  0.20327338  0.77460519  0.38997300     0.19800
C706        C  0.18983698  0.77330889  0.37880737     0.22400
C707        C  0.18942870  0.77971757  0.35224170    -0.39600
C708        C  0.20351211  0.78766605  0.33784241     0.21200
N709        N  0.22903776  0.79818874  0.33199567    -0.32800
C710        C  0.22304700  0.80241498  0.30995530    -0.10400
C711        C  0.20717446  0.79601678  0.31277977    -0.29200
N712        N  0.17825809  0.76637517  0.39765886    -0.45800
C713        C  0.18431344  0.76326557  0.42109459    -0.05100
C714        C  0.19985491  0.76804010  0.41704090    -0.22500
H715        H  0.22800729  0.78402870  0.38464503     0.19400
H716        H  0.17900885  0.77903410  0.34388461     0.18200
H717        H  0.19946481  0.79777281  0.29896988     0.14400
H718        H  0.20775545  0.76754478  0.43240874     0.14300
H719        H  0.24062306  0.80163447  0.33558925     0.32500
H720        H  0.16706459  0.76443060  0.39520858     0.35200
C721        C  0.20385932  0.78998731  0.08705456     0.20800
C722        C  0.21161390  0.80451269  0.10011742    -0.39100
C723        C  0.21784969  0.80510387  0.12751956     0.19800
C724        C  0.21645690  0.79219738  0.14088967     0.22400
C725        C  0.20861274  0.77762822  0.12787165    -0.39600
C726        C  0.20237527  0.77703675  0.10040301     0.21200
N727        N  0.19638325  0.78633988  0.06163541    -0.32800
C728        C  0.18997958  0.77095399  0.05881059    -0.10400
C729        C  0.19351947  0.76470984  0.08245355    -0.29200
N730        N  0.22308145  0.79576669  0.16716919    -0.45800
C731        C  0.22867003  0.81102349  0.17052572    -0.05100
C732        C  0.22563568  0.81726284  0.14628017    -0.22500
H733        H  0.21251850  0.81457128  0.08987163     0.19400
H734        H  0.20726914  0.76748278  0.13851998     0.18200
H735        H  0.18965671  0.75274547  0.08644631     0.14400
H736        H  0.22847640  0.82902440  0.14306885     0.14300
H737        H  0.19525065  0.79378805  0.04752501     0.32500
H738        H  0.22349234  0.78824223  0.18214731     0.35200
C739        C  0.09601117  0.55269054  0.04873902     0.20800
C740        C  0.10366414  0.54586143  0.06213062    -0.39100
C741        C  0.09821994  0.53957614  0.08953827     0.19800
C742        C  0.08620594  0.54024910  0.10256665     0.22400
C743        C  0.07858505  0.54704173  0.08920458    -0.39600
C744        C  0.08389368  0.55314526  0.06180035     0.21200
N745        N  0.09838354  0.55875191  0.02213820    -0.32800
C746        C  0.08762579  0.56296761  0.01833584    -0.10400
C747        C  0.07837702  0.55964361  0.04255650    -0.29200
N748        N  0.08230994  0.53242627  0.12738695    -0.45800
C749        C  0.09166636  0.52645059  0.13009979    -0.05100
C750        C  0.10193035  0.53080962  0.10711332    -0.22500
H751        H  0.11279158  0.54502284  0.05157656     0.19400
H752        H  0.06885802  0.54707973  0.09902119     0.18200
H753        H  0.06872036  0.56144785  0.04543873     0.14400
H754        H  0.11027533  0.52727100  0.10294835     0.14300
H755        H  0.10651872  0.55959387  0.00721656     0.32500
H756        H  0.07319640  0.53049652  0.14081460     0.35200
C757        C  0.09573338  0.54912290  0.34290352     0.20800
C758        C  0.10243738  0.54973832  0.31610975    -0.39100
C759        C  0.09647838  0.53569203  0.30143721     0.19800
C760        C  0.08474207  0.52208653  0.31258961     0.22400
C761        C  0.07816777  0.52144995  0.33947280    -0.39600
C762        C  0.08412579  0.53546533  0.35413061     0.21200
N763        N  0.09844587  0.56100031  0.36003112    -0.32800
C764        C  0.08847404  0.55478704  0.38222676    -0.10400
C765        C  0.07946730  0.53891119  0.37942777    -0.29200
N766        N  0.08027319  0.51056392  0.29351705    -0.45800
C767        C  0.08920285  0.51689462  0.27005030    -0.05100
C768        C  0.09954571  0.53249794  0.27423059    -0.22500
H769        H  0.11123794  0.56042879  0.30690103     0.19400
H770        H  0.06872672  0.51091043  0.34789512     0.18200
H771        H  0.07020452  0.53105324  0.39328470     0.14400
H772        H  0.10768585  0.54054310  0.25889929     0.14300
H773        H  0.10615603  0.57262233  0.35632071     0.32500
H774        H  0.07133681  0.49924194  0.29588668     0.35200
C775        C  0.10754758  0.64872666  0.46427767     0.20800
C776        C  0.10591279  0.66168794  0.46704901    -0.39100
C777        C  0.11951242  0.67552131  0.47320807     0.19800
C778        C  0.13361564  0.67634014  0.47665504     0.22400
C779        C  0.13527268  0.66341754  0.47349428    -0.39600
C780        C  0.12171391  0.64961999  0.46703328     0.21200
N781        N  0.09638525  0.63421954  0.45885637    -0.32800
C782        C  0.10354420  0.62588212  0.45778921    -0.10400
C783        C  0.11933955  0.63507101  0.46269496    -0.29200
N784        N  0.14473545  0.69075919  0.48291001    -0.45800
C785        C  0.13768853  0.69920094  0.48312057    -0.05100
C786        C  0.12197237  0.69012965  0.47707732    -0.22500
H787        H  0.09487442  0.66104474  0.46464874     0.19400
H788        H  0.14630429  0.66405400  0.47593780     0.18200
H789        H  0.12787099  0.63153030  0.46343811     0.14400
H790        H  0.11350548  0.69374377  0.47578730     0.14300
H791        H  0.08464252  0.63023497  0.45596076     0.32500
H792        H  0.15641815  0.69465903  0.48645366     0.35200
C793        C  0.98959339  0.43643560  0.13799901     0.20800
C794        C  0.99864167  0.43995811  0.16321280    -0.39100
C795        C  0.01463995  0.44898726  0.15934446     0.19800
C796        C  0.02107492  0.45384531  0.13233208     0.22400
C797        C  0.01204971  0.45040042  0.10721660    -0.39600
C798        C  0.99608792  0.44162364  0.11113288     0.21200
N799        N  0.97413444  0.42925011  0.13615390    -0.32800
C800        C  0.97082101  0.43017212  0.10805828    -0.10400
C801        C  0.98420109  0.43767648  0.09173729    -0.29200
N802        N  0.03641134  0.46294393  0.13443505    -0.45800
C803        C  0.03981293  0.46415920  0.16297628    -0.05100
C804        C  0.02654996  0.45556776  0.17929783    -0.22500
H805        H  0.99357125  0.43646185  0.18437226     0.19400
H806        H  0.01707341  0.45477111  0.08629836     0.18200
H807        H  0.98512981  0.44054220  0.06905617     0.14400
H808        H  0.02568264  0.45471601  0.20256294     0.14300
H809        H  0.96635993  0.42477130  0.15319970     0.32500
H810        H  0.04403511  0.46859112  0.11755998     0.35200
C811        C  0.88365537  0.34757080  0.05738670     0.20800
C812        C  0.86966220  0.33472164  0.04857829    -0.39100
C813        C  0.86993818  0.32101277  0.04510222     0.19800
C814        C  0.88310641  0.32021920  0.05036761     0.22400
C815        C  0.89703693  0.33301612  0.05907905    -0.39600
C816        C  0.89679874  0.34667549  0.06222589     0.21200
N817        N  0.88667276  0.36205524  0.06119392    -0.32800
C818        C  0.90186178  0.37033091  0.06819150    -0.10400
C819        C  0.90853073  0.36114680  0.06911029    -0.29200
N820        N  0.88050809  0.30601260  0.04543157    -0.45800
C821        C  0.86562138  0.29763306  0.03666866    -0.05100
C822        C  0.85859308  0.30656623  0.03618403    -0.22500
H823        H  0.85941128  0.33539757  0.04434028     0.19400
H824        H  0.90738287  0.33242808  0.06272659     0.18200
H825        H  0.92045842  0.36467264  0.07358258     0.14400
H826        H  0.84679673  0.30295765  0.03032380     0.14300
H827        H  0.87903971  0.36613497  0.05839214     0.32500
H828        H  0.88842573  0.30224976  0.04773668     0.35200
C829        C  0.91178474  0.46047057  0.22429095     0.20800
C830        C  0.90491477  0.44602095  0.21072367    -0.39100
C831        C  0.91122168  0.44557943  0.18401830     0.19800
C832        C  0.92334418  0.45857745  0.17189602     0.22400
C833        C  0.93021036  0.47292619  0.18546529    -0.39600
C834        C  0.92398777  0.47335222  0.21206298     0.21200
N835        N  0.90852586  0.46388138  0.25038136    -0.32800
C836        C  0.91883284  0.47898051  0.25466112    -0.10400
C837        C  0.92860584  0.48528040  0.23123487    -0.29200
N838        N  0.92777805  0.45514818  0.14720162    -0.45800
C839        C  0.91858249  0.43983976  0.14353818    -0.05100
C840        C  0.90800775  0.43340107  0.16596476    -0.22500
H841        H  0.89563458  0.43584455  0.22053671     0.19400
H842        H  0.93995072  0.48296478  0.17627879     0.18200
H843        H  0.93813018  0.49689668  0.22897103     0.14400
H844        H  0.89954578  0.42142352  0.16913443     0.14300
H845        H  0.90018902  0.45632670  0.26476665     0.32500
H846        H  0.93693592  0.46269566  0.13416243     0.35200
C847        C  0.92114493  0.45531463  0.42055492     0.20800
C848        C  0.92744615  0.44670230  0.43170609    -0.39100
C849        C  0.92271923  0.44082937  0.45956283     0.19800
C850        C  0.91241334  0.44328388  0.47503248     0.22400
C851        C  0.90606545  0.45186925  0.46382052    -0.39600
C852        C  0.91087759  0.45783514  0.43600888     0.21200
N853        N  0.92462467  0.46292940  0.39544678    -0.32800
C854        C  0.91662711  0.47045443  0.39487510    -0.10400
C855        C  0.90782913  0.46751282  0.41974823    -0.29200
N856        N  0.91145179  0.43851869  0.99617267    -0.45800
C857        C  0.92126536  0.43312424  0.99977557    -0.05100
C858        C  0.92750196  0.43301377  0.47735816    -0.22500
H859        H  0.93580793  0.44511774  0.41991407     0.19400
H860        H  0.89834353  0.45415382  0.47621791     0.18200
H861        H  0.90070004  0.47229569  0.42564222     0.14400
H862        H  0.93592996  0.42966127  0.47258355     0.14300
H863        H  0.93242748  0.46344021  0.38008285     0.32500
H864        H  0.90397938  0.43873847  0.01147894     0.35200
C865        C  0.99209191  0.54618076  0.36385685     0.20800
C866        C  0.00785834  0.55549139  0.35770177    -0.39100
C867        C  0.01796853  0.55908247  0.38136486     0.19800
C868        C  0.01270181  0.55371696  0.40887074     0.22400
C869        C  0.99702096  0.54457794  0.41501528    -0.39600
C870        C  0.98697416  0.54111094  0.39155175     0.21200
N871        N  0.98016976  0.54024901  0.34507183    -0.32800
C872        C  0.96748364  0.53149273  0.36117807    -0.10400
C873        C  0.97126174  0.53185125  0.39019666    -0.29200
N874        N  0.02449284  0.55774521  0.42726130    -0.45800
C875        C  0.03742777  0.56574150  0.41152129    -0.05100
C876        C  0.03388501  0.56696352  0.38278615    -0.22500
H877        H  0.01196212  0.55927840  0.33603385     0.19400
H878        H  0.99295597  0.54013952  0.43640827     0.18200
H879        H  0.96360556  0.52553202  0.40771785     0.14400
H880        H  0.04184042  0.57225668  0.36514308     0.14300
H881        H  0.98066010  0.54170799  0.32271601     0.32500
H882        H  0.02378148  0.55478086  0.44902599     0.35200
C883        C  0.88010294  0.55536345  0.29978124     0.20800
C884        C  0.89422080  0.55683587  0.30822603    -0.39100
C885        C  0.89430137  0.54306067  0.31119896     0.19800
C886        C  0.88128415  0.52888811  0.30632720     0.22400
C887        C  0.86718136  0.52742548  0.29760877    -0.39600
C888        C  0.86712078  0.54122866  0.29443970     0.21200
N889        N  0.87700278  0.56671370  0.29591925    -0.32800
C890        C  0.86197798  0.55980687  0.28787757    -0.10400
C891        C  0.85539949  0.54390554  0.28656953    -0.29200
N892        N  0.88438768  0.51754971  0.31074451    -0.45800
C893        C  0.89950200  0.52458560  0.31824235    -0.05100
C894        C  0.90609216  0.54048820  0.31871765    -0.22500
H895        H  0.90438783  0.56789608  0.31221944     0.19400
H896        H  0.85701480  0.51636614  0.29362633     0.18200
H897        H  0.84360125  0.53546759  0.28116021     0.14400
H898        H  0.91793159  0.54900073  0.32367832     0.14300
H899        H  0.88462370  0.57845332  0.29871320     0.32500
H900        H  0.87678527  0.50578047  0.30832540     0.35200
C901        C  0.77893398  0.57242494  0.13257575     0.20800
C902        C  0.78540377  0.56459510  0.14644669    -0.39100
C903        C  0.79347056  0.57127115  0.17214641     0.19800
C904        C  0.79489810  0.58468746  0.18315017     0.22400
C905        C  0.78854594  0.59258390  0.16916011    -0.39600
C906        C  0.78052671  0.58593808  0.14342499     0.21200
N907        N  0.77134190  0.56880716  0.10724500    -0.32800
C908        C  0.76821696  0.58015681  0.10175750    -0.10400
C909        C  0.77370082  0.59104460  0.12387686    -0.29200
N910        N  0.80357470  0.58900531  0.20722020    -0.45800
C911        C  0.80784342  0.57837856  0.21147170    -0.05100
C912        C  0.80173743  0.56707447  0.19010399    -0.22500
H913        H  0.78448830  0.55424525  0.13756446     0.19400
H914        H  0.79001494  0.60327852  0.17741226     0.18200
H915        H  0.77323498  0.60151709  0.12499647     0.14400
H916        H  0.80352347  0.55742178  0.18753995     0.14300
H917        H  0.76893225  0.55948345  0.09396276     0.32500
H918        H  0.80685835  0.59888921  0.21945657     0.35200
C919        C  0.81125345  0.58414628  0.39290313     0.20800
C920        C  0.81167030  0.59082068  0.41970739    -0.39100
C921        C  0.79781637  0.58389029  0.43512176     0.19800
C922        C  0.78452635  0.57125799  0.42468177     0.22400
C923        C  0.78415106  0.56447821  0.39797999    -0.39600
C924        C  0.79802258  0.57142144  0.38254104     0.21200
N925        N  0.82263257  0.58914343  0.37341913    -0.32800
C926        C  0.81662660  0.57951362  0.35049997    -0.10400
C927        C  0.80133102  0.56826829  0.35543019    -0.29200
N928        N  0.77259770  0.56763104  0.44235790    -0.45800
C929        C  0.77835485  0.57806905  0.46411370    -0.05100
C930        C  0.79405888  0.58829150  0.46048043    -0.22500
H931        H  0.82189446  0.60097274  0.42756586     0.19400
H932        H  0.77370688  0.55481696  0.38943459     0.18200
H933        H  0.79355120  0.55929630  0.34077505     0.14400
H934        H  0.80151469  0.59814575  0.47375876     0.14300
H935        H  0.83369764  0.59868699  0.37534713     0.32500
H936        H  0.76113241  0.55903649  0.43916910     0.35200
C937        C  0.67988951  0.54024560  0.04091563     0.20800
C938        C  0.66686245  0.52652120  0.04969622    -0.39100
C939        C  0.65298593  0.52674053  0.05045454     0.19800
C940        C  0.65221291  0.53960642  0.04279044     0.22400
C941        C  0.66518036  0.55326984  0.03416021    -0.39600
C942        C  0.67899687  0.55309245  0.03367348     0.21200
N943        N  0.69452599  0.54325791  0.03913697    -0.32800
C944        C  0.70288754  0.55815307  0.03100000    -0.10400
C945        C  0.69361751  0.56463694  0.02739691    -0.29200
N946        N  0.63785909  0.53707822  0.04569083    -0.45800
C947        C  0.62938213  0.52255245  0.05553131    -0.05100
C948        C  0.63835911  0.51565507  0.05872235    -0.22500
H949        H  0.66751954  0.51651866  0.05585304     0.19400
H950        H  0.66720459  0.56582968  0.54426098     0.18200
H951        H  0.69985235  0.57884393  0.53573730     0.14400
H952        H  0.63470060  0.50416697  0.06619416     0.14300
H953        H  0.69862645  0.53582460  0.04388116     0.32500
H954        H  0.63408467  0.54483870  0.04154440     0.35200
C955        C  0.55261391  0.55956488  0.14986748     0.20800
C956        C  0.56059431  0.55179123  0.15613017    -0.39100
C957        C  0.56522290  0.54662812  0.13218530     0.19800
C958        C  0.56196212  0.54886060  0.10413215     0.22400
C959        C  0.55411638  0.55677366  0.09785710    -0.39600
C960        C  0.54966394  0.56211327  0.12180272     0.21200
N961        N  0.54598411  0.56453410  0.16878186    -0.32800
C962        C  0.53883721  0.57036679  0.15268000    -0.10400
C963        C  0.54100105  0.56921232  0.12328006    -0.29200
N964        N  0.56635067  0.54165683  0.08534734    -0.45800
C965        C  0.57251051  0.53485030  0.10152854    -0.05100
C966        C  0.57215692  0.53782083  0.13082587    -0.22500
H967        H  0.56261262  0.54949548  0.17805271     0.19400
H968        H  0.55125430  0.55823535  0.07597498     0.18200
H969        H  0.53607662  0.57226079  0.10542418     0.14400
H970        H  0.57560801  0.53333020  0.14877320     0.14300
H971        H  0.54581689  0.56348234  0.19121781     0.32500
H972        H  0.56468984  0.54089014  0.06299922     0.35200
C973        C  0.52367913  0.44297277  0.20231071     0.20800
C974        C  0.52330357  0.44930152  0.17558162    -0.39100
C975        C  0.53742578  0.45716541  0.16117246     0.19800
C976        C  0.55091308  0.45866170  0.17252165     0.22400
C977        C  0.55125781  0.45221129  0.19912531    -0.39600
C978        C  0.53712748  0.44431205  0.21350356     0.21200
N979        N  0.51200305  0.43568197  0.22094533    -0.32800
C980        C  0.51808383  0.43234235  0.24409571    -0.10400
C981        C  0.53368345  0.43745862  0.24020242    -0.29200
N982        N  0.56295091  0.46750530  0.15549304    -0.45800
C983        C  0.55704530  0.47164155  0.13319309    -0.05100
C984        C  0.54117269  0.46533815  0.13585272    -0.22500
H985        H  0.51287686  0.44850871  0.16698779     0.19400
H986        H  0.56181910  0.45357817  0.20830346     0.18200
H987        H  0.54154952  0.43671832  0.25530578     0.14400
H988        H  0.53352716  0.46703716  0.12175491     0.14300
H989        H  0.50070929  0.43343048  0.21837709     0.32500
H990        H  0.57450817  0.47089349  0.15923558     0.35200
C991        C  0.53866550  0.45704136  0.41326602     0.20800
C992        C  0.54649553  0.47165122  0.42599440    -0.39100
C993        C  0.55393977  0.47263323  0.45223782     0.19800
C994        C  0.55367609  0.46003717  0.46474560     0.22400
C995        C  0.54583143  0.44541658  0.45200610    -0.39600
C996        C  0.53831038  0.44441361  0.42581466     0.21200
N997        N  0.53031970  0.45302048  0.38878869    -0.32800
C998        C  0.52461131  0.43773712  0.38571526    -0.10400
C999        C  0.52928274  0.43191648  0.40840689    -0.29200
N1000       N  0.55961863  0.46409773  0.98984327    -0.45800
C1001       C  0.56559847  0.47883970  0.49444709    -0.05100
C1002       C  0.56159330  0.48479349  0.47101617    -0.22500
H1003       H  0.54649235  0.48144956  0.41649590     0.19400
H1004       H  0.54533864  0.43549871  0.46205929     0.18200
H1005       H  0.52633349  0.42013979  0.41184189     0.14400
H1006       H  0.56344779  0.49627281  0.46863303     0.14300
H1007       H  0.52843767  0.46018620  0.37521189     0.32500
H1008       H  0.56088363  0.45686153  0.00431376     0.35200
C1009       C  0.45178957  0.42998698  0.38180437     0.20800
C1010       C  0.44859750  0.43542586  0.40717878    -0.39100
C1011       C  0.44116690  0.44392130  0.40334849     0.19800
C1012       C  0.43692112  0.44646796  0.37633296     0.22400
C1013       C  0.44012578  0.44105145  0.35099814    -0.39600
C1014       C  0.44786538  0.43287721  0.35476977     0.21200
N1015       N  0.46047888  0.42340233  0.37942152    -0.32800
C1016       C  0.46241510  0.42248920  0.35073827    -0.10400
C1017       C  0.45458196  0.42810030  0.33463934    -0.29200
N1018       N  0.43111789  0.45584547  0.37820641    -0.45800
C1019       C  0.43192630  0.45953400  0.40649820    -0.05100
C1020       C  0.43805476  0.45227212  0.42294372    -0.22500
H1021       H  0.45241195  0.43391264  0.42818565     0.19400
H1022       H  0.43758312  0.44377686  0.32981914     0.18200
H1023       H  0.45474353  0.42954007  0.31147727     0.14400
H1024       H  0.44052115  0.45348299  0.44587348     0.14300
H1025       H  0.46579483  0.42084615  0.39622269     0.32500
H1026       H  0.42759245  0.46013314  0.36111217     0.35200
C1027       C  0.44274999  0.31535279  0.29048435     0.20800
C1028       C  0.44125619  0.32792691  0.29848415    -0.39100
C1029       C  0.45502146  0.34200249  0.30063289     0.19800
C1030       C  0.46926858  0.34347509  0.29552733     0.22400
C1031       C  0.47076127  0.33086112  0.28724919    -0.39600
C1032       C  0.45690433  0.31672698  0.28479281     0.21200
N1033       N  0.43133332  0.30080024  0.28704558    -0.32800
C1034       C  0.43811779  0.29274258  0.27883256    -0.10400
C1035       C  0.45410691  0.30227083  0.27708407    -0.29200
N1036       N  0.48057109  0.35815881  0.29911304    -0.45800
C1037       C  0.47337493  0.36601692  0.30621263    -0.05100
C1038       C  0.45746013  0.35633770  0.30733475    -0.22500
H1039       H  0.43015248  0.32683281  0.30261296     0.19400
H1040       H  0.48185811  0.33198150  0.28293652     0.18200
H1041       H  0.46251096  0.29904173  0.27129050     0.14400
H1042       H  0.44883591  0.35940844  0.31226572     0.14300
H1043       H  0.41957655  0.29658975  0.29000965     0.32500
H1044       H  0.49238780  0.36260992  0.29639992     0.35200
C1045       C  0.41437881  0.18630583  0.13393737     0.20800
C1046       C  0.40832416  0.18568345  0.16150484    -0.39100
C1047       C  0.41333410  0.19994802  0.17494894     0.19800
C1048       C  0.42358287  0.21369218  0.16189194     0.22400
C1049       C  0.42966674  0.21429093  0.13457449    -0.39600
C1050       C  0.42470700  0.20012210  0.12123293     0.21200
N1051       N  0.41083949  0.17454493  0.11576130    -0.32800
C1052       C  0.41905082  0.18106506  0.09151894    -0.10400
C1053       C  0.42788132  0.19693079  0.09425020    -0.29200
N1054       N  0.42597666  0.22567291  0.17822812    -0.45800
C1055       C  0.41716183  0.21959291  0.20186967    -0.05100
C1056       C  0.40914224  0.20357108  0.20077214    -0.22500
H1057       H  0.40005168  0.17495600  0.17140257     0.19400
H1058       H  0.43743016  0.22504529  0.12415129     0.18200
H1059       H  0.43517704  0.20509145  0.07814488     0.14400
H1060       H  0.40100121  0.19569273  0.21629835     0.14300
H1061       H  0.40309249  0.16291664  0.11931145     0.32500
H1062       H  0.43283640  0.23728872  0.17320261     0.35200
C1063       C  0.42613750  0.21536884  0.36750146     0.20800
C1064       C  0.43338889  0.20780820  0.37968829    -0.39100
C1065       C  0.42826145  0.20150351  0.40726445     0.19800
C1066       C  0.41688720  0.20280529  0.42143985     0.22400
C1067       C  0.40959146  0.21021477  0.40920310    -0.39600
C1068       C  0.41460573  0.21637608  0.38171687     0.21200
N1069       N  0.42850164  0.22188769  0.34129073    -0.32800
C1070       C  0.41828629  0.22689940  0.33884050    -0.10400
C1071       C  0.40942012  0.22365991  0.36359927    -0.29200
N1072       N  0.41355387  0.19541701  0.44672251    -0.45800
C1073       C  0.42266781  0.18913259  0.44883675    -0.05100
C1074       C  0.43211531  0.19271859  0.42464059    -0.22500
H1075       H  0.44213741  0.20666656  0.36832537     0.19400
H1076       H  0.40043643  0.21085955  0.42009482     0.18200
H1077       H  0.40025055  0.22608255  0.36759377     0.14400
H1078       H  0.44022422  0.18894597  0.41991913     0.14300
H1079       H  0.43627499  0.22252707  0.32573052     0.32500
H1080       H  0.40509954  0.19420239  0.46121363     0.35200
C1081       C  0.47289700  0.11912707  0.05507778     0.20800
C1082       C  0.47404658  0.13357023  0.05267045    -0.39100
C1083       C  0.46059665  0.13340466  0.04340478     0.19800
C1084       C  0.44708492  0.11987194  0.03716846     0.22400
C1085       C  0.44596775  0.10549988  0.03940580    -0.39600
C1086       C  0.45937289  0.10567259  0.04853116     0.21200
N1087       N  0.48386642  0.11606827  0.06395305    -0.32800
C1088       C  0.47720533  0.10056678  0.06300876    -0.10400
C1089       C  0.46198790  0.09372098  0.05332725    -0.29200
N1090       N  0.43586627  0.12267769  0.02927280    -0.45800
C1091       C  0.44222455  0.13811040  0.03024602    -0.05100
C1092       C  0.45765426  0.14525001  0.03900945    -0.22500
H1093       H  0.48457916  0.14412508  0.05780188     0.19400
H1094       H  0.43538517  0.09493305  0.03457330     0.18200
H1095       H  0.45387605  0.08159855  0.05049210     0.14400
H1096       H  0.46555647  0.15740164  0.04206293     0.14300
H1097       H  0.49512494  0.12398962  0.07035138     0.32500
H1098       H  0.42452714  0.11456881  0.02367354     0.35200
C1099       C  0.43994454  0.98786010  0.16044383     0.20800
C1100       C  0.45012534  0.00329857  0.16760957    -0.39100
C1101       C  0.45485597  0.01369908  0.14457569     0.19800
C1102       C  0.44991368  0.00905104  0.11649137     0.22400
C1103       C  0.43951702  0.99365684  0.10940631    -0.39600
C1104       C  0.43473030  0.98326622  0.13245359     0.21200
N1105       N  0.43528895  0.97560975  0.17769527    -0.32800
C1106       C  0.42715624  0.96314378  0.16053638    -0.10400
C1107       C  0.42630133  0.96745583  0.13230470    -0.29200
N1108       N  0.45718928  0.02088322  0.09817253    -0.45800
C1109       C  0.46669028  0.03318401  0.11473943    -0.05100
C1110       C  0.46548280  0.02919110  0.14381696    -0.22500
H1111       H  0.45458458  0.00685440  0.18929779     0.19400
H1112       H  0.43599046  0.98993425  0.08736026     0.18200
H1113       H  0.42134245  0.96001892  0.11370825     0.14400
H1114       H  0.47208597  0.03646967  0.16174854     0.14300
H1115       H  0.43831098  0.97570223  0.19933970     0.32500
H1116       H  0.45604397  0.02054816  0.07572489     0.35200
C1117       C  0.55062250  0.98604235  0.40677005     0.20800
C1118       C  0.55825606  0.00158602  0.41470392    -0.39100
C1119       C  0.56392501  0.01207046  0.39184968     0.19800
C1120       C  0.56202088  0.00742200  0.36326342     0.22400
C1121       C  0.55447598  0.99187726  0.35534280    -0.39600
C1122       C  0.54890323  0.98139456  0.37819994     0.21200
N1123       N  0.54319517  0.97388433  0.42424776    -0.32800
C1124       C  0.53669896  0.96143834  0.40666163    -0.10400
C1125       C  0.54012218  0.96562523  0.37782737    -0.29200
N1126       N  0.56745849  0.01957342  0.34556571    -0.45800
C1127       C  0.57292262  0.03203354  0.36301713    -0.05100
C1128       C  0.57101178  0.02783750  0.39202386    -0.22500
H1129       H  0.55929319  0.00523985  0.43697046     0.19400
H1130       H  0.55265866  0.98821105  0.33300371     0.18200
H1131       H  0.53596994  0.95820412  0.35905920     0.14400
H1132       H  0.57373972  0.03526539  0.41064651     0.14300
H1133       H  0.54205795  0.97407564  0.44661643     0.32500
H1134       H  0.56705063  0.01937936  0.32303514     0.35200
C1135       C  0.55666831  0.09025473  0.43761730     0.20800
C1136       C  0.55724847  0.09804718  0.46308727    -0.39100
C1137       C  0.54313445  0.09267736  0.47716583     0.19800
C1138       C  0.52953645  0.08037754  0.46681192     0.22400
C1139       C  0.52894575  0.07265218  0.44129272    -0.39600
C1140       C  0.54300450  0.07812930  0.42707102     0.21200
N1141       N  0.56853483  0.09279177  0.42070650    -0.32800
C1142       C  0.56229658  0.08228834  0.39917139    -0.10400
C1143       C  0.54642558  0.07296622  0.40234814    -0.29200
N1144       N  0.51798953  0.07663721  0.48537431    -0.45800
C1145       C  0.52390157  0.08050073  0.00951252    -0.05100
C1146       C  0.53986672  0.08979332  0.00771363    -0.22500
H1147       H  0.56794110  0.10736502  0.47164789     0.19400
H1148       H  0.51837807  0.06288385  0.43342314     0.18200
H1149       H  0.53852955  0.06346736  0.38875391     0.14400
H1150       H  0.54774780  0.09717401  0.02432500     0.14300
H1151       H  0.58013844  0.10103821  0.42372712     0.32500
H1152       H  0.50672849  0.06738884  0.48366460     0.35200
C1153       C  0.54478892  0.07895908  0.17512965     0.20800
C1154       C  0.55310082  0.07252119  0.18708334    -0.39100
C1155       C  0.55895099  0.07750640  0.21495503     0.19800
C1156       C  0.55678375  0.08820191  0.22968010     0.22400
C1157       C  0.54848065  0.09467750  0.21769283    -0.39600
C1158       C  0.54251940  0.08959663  0.18983092     0.21200
N1159       N  0.53716378  0.07522711  0.14987813    -0.32800
C1160       C  0.52985438  0.08340277  0.14844913    -0.10400
C1161       C  0.53299809  0.09263684  0.17287556    -0.29200
N1162       N  0.56279009  0.09041565  0.25639147    -0.45800
C1163       C  0.56868812  0.08097966  0.25873424    -0.05100
C1164       C  0.56658922  0.07277360  0.23330771    -0.22500
H1165       H  0.55447655  0.06388778  0.17585023     0.19400
H1166       H  0.54641033  0.10270085  0.22953844     0.18200
H1167       H  0.52838102  0.09998306  0.17810465     0.14400
H1168       H  0.56977589  0.06418255  0.22915538     0.14300
H1169       H  0.53646404  0.06711737  0.13500313     0.32500
H1170       H  0.56244940  0.09752724  0.27239175     0.35200
C1171       C  0.79682260  0.21006116  0.17707884     0.20800
C1172       C  0.81172357  0.21778878  0.16566246    -0.39100
C1173       C  0.81292915  0.22351810  0.13771827     0.19800
C1174       C  0.80028120  0.22186515  0.12242863     0.22400
C1175       C  0.78536111  0.21419526  0.13391919    -0.39600
C1176       C  0.78411813  0.20828052  0.16179195     0.21200
N1177       N  0.79248001  0.20220899  0.20186141    -0.32800
C1178       C  0.77690314  0.19518466  0.20222945    -0.10400
C1179       C  0.77123560  0.19884476  0.17781382    -0.29200
N1180       N  0.80438048  0.22758481  0.09571354    -0.45800
C1181       C  0.81969615  0.23278097  0.09401807    -0.05100
C1182       C  0.82545770  0.23049075  0.11977038    -0.22500
H1183       H  0.82155315  0.21869205  0.17721555     0.19400
H1184       H  0.77538648  0.21240333  0.12160753     0.18200
H1185       H  0.75929940  0.19440030  0.17173810     0.14400
H1186       H  0.83713864  0.23319769  0.12444155     0.14300
H1187       H  0.79961183  0.20097317  0.21680798     0.32500
H1188       H  0.79714473  0.22755024  0.07937751     0.35200
C1189       C  0.78392744  0.19150277  0.37891382     0.20800
C1190       C  0.79134871  0.19117113  0.40434504    -0.39100
C1191       C  0.79798028  0.20464032  0.42084946     0.19800
C1192       C  0.79740030  0.21753219  0.41257833     0.22400
C1193       C  0.78983454  0.21781705  0.38721710    -0.39600
C1194       C  0.78306967  0.20426596  0.37078573     0.21200
N1195       N  0.77727951  0.18036199  0.35899550    -0.32800
C1196       C  0.77206288  0.18601735  0.33812886    -0.10400
C1197       C  0.77534480  0.20085322  0.34471268    -0.29200
N1198       N  0.80523299  0.22907797  0.43141992    -0.45800
C1199       C  0.81068765  0.22338332  0.45182720    -0.05100
C1200       C  0.80637690  0.20819381  0.44604674    -0.22500
H1201       H  0.79211708  0.18123876  0.41058372     0.19400
H1202       H  0.78945237  0.22790157  0.38055516     0.18200
H1203       H  0.77284170  0.20827357  0.33176288     0.14400
H1204       H  0.80939880  0.20090454  0.45818049     0.14300
H1205       H  0.77650760  0.16964572  0.35937365     0.32500
H1206       H  0.80696976  0.24017751  0.43025118     0.35200
C1207       C  0.65587203  0.12203991  0.31148625     0.20800
C1208       C  0.66762637  0.13551566  0.29876870    -0.39100
C1209       C  0.68193706  0.13630277  0.29584641     0.19800
C1210       C  0.68428850  0.12459369  0.30513814     0.22400
C1211       C  0.67261527  0.11121701  0.31789250    -0.39600
C1212       C  0.65833603  0.11036264  0.32050895     0.21200
N1213       N  0.64097803  0.11794052  0.31483515    -0.32800
C1214       C  0.63395854  0.10347927  0.32557461    -0.10400
C1215       C  0.64443070  0.09843439  0.32960737    -0.29200
N1216       N  0.69864567  0.12778094  0.29925922    -0.45800
C1217       C  0.70558103  0.14160080  0.28604148    -0.05100
C1218       C  0.69556670  0.14736534  0.28354940    -0.22500
H1219       H  0.66566364  0.14451596  0.29104207     0.19400
H1220       H  0.67440292  0.10193857  0.32451514     0.18200
H1221       H  0.64204545  0.08728282  0.33703371     0.14400
H1222       H  0.69790508  0.15809402  0.27392827     0.14300
H1223       H  0.63576268  0.12424616  0.30883359     0.32500
H1224       H  0.70342954  0.12090686  0.30383213     0.35200
C1225       C  0.68228027  0.78930301  0.30821365     0.20800
C1226       C  0.66706457  0.78290259  0.31787863    -0.39100
C1227       C  0.65559007  0.77679644  0.29640209     0.19800
C1228       C  0.65900078  0.77710782  0.26743269     0.22400
C1229       C  0.67423425  0.78343528  0.25773885    -0.39600
C1230       C  0.68572330  0.78950714  0.27927894     0.21200
N1231       N  0.69523245  0.79643236  0.32427401    -0.32800
C1232       C  0.70703160  0.80128113  0.30547496    -0.10400
C1233       C  0.70157475  0.79707250  0.27721055    -0.29200
N1234       N  0.64604892  0.77103779  0.25129777    -0.45800
C1235       C  0.63432869  0.76675395  0.27017037    -0.05100
C1236       C  0.63981821  0.77012702  0.29849564    -0.22500
H1237       H  0.66437109  0.78289556  0.34044917     0.19400
H1238       H  0.67695366  0.78383990  0.23508229     0.18200
H1239       H  0.70830669  0.79965031  0.25772399     0.14400
H1240       H  0.63318597  0.76824380  0.31792318     0.14300
H1241       H  0.69601134  0.79824376  0.34655961     0.32500
H1242       H  0.64522848  0.76997639  0.22883586     0.35200
C1243       C  0.80193069  0.78019525  0.37011118     0.20800
C1244       C  0.80444632  0.79506450  0.36592906    -0.39100
C1245       C  0.79153903  0.79595262  0.35700237     0.19800
C1246       C  0.77720323  0.78301648  0.35280698     0.22400
C1247       C  0.77469488  0.76815334  0.35690548    -0.39600
C1248       C  0.78762049  0.76726727  0.36561693     0.21200
N1249       N  0.81237479  0.77624218  0.37793548    -0.32800
C1250       C  0.80466578  0.76069529  0.37814866    -0.10400
C1251       C  0.78920407  0.75468149  0.37068071    -0.29200
N1252       N  0.76676829  0.78694125  0.34484077    -0.45800
C1253       C  0.77452220  0.80247988  0.34383446    -0.05100
C1254       C  0.79001073  0.80852731  0.35117115    -0.22500
H1255       H  0.81563752  0.80518818  0.36925392     0.19400
H1256       H  0.76352122  0.75802513  0.35344158     0.18200
H1257       H  0.78038517  0.74271540  0.36878494     0.14400
H1258       H  0.79885650  0.82049984  0.35264761     0.14300
H1259       H  0.82407928  0.78363534  0.38223610     0.32500
H1260       H  0.75506608  0.77952216  0.34058783     0.35200
C1261       C  0.78421216  0.67438842  0.45814208     0.20800
C1262       C  0.78072867  0.66649445  0.48441977    -0.39100
C1263       C  0.77331578  0.65048358  0.48234009     0.19800
C1264       C  0.76955257  0.64288535  0.45605427     0.22400
C1265       C  0.77325497  0.65080509  0.42969485    -0.39600
C1266       C  0.78079638  0.66686880  0.43178532     0.21200
N1267       N  0.79209562  0.68964123  0.45449263    -0.32800
C1268       C  0.79402929  0.69191849  0.42568203    -0.10400
C1269       C  0.78707793  0.67799589  0.41069628    -0.29200
N1270       N  0.76311370  0.62768324  0.45998584    -0.45800
C1271       C  0.76298951  0.62564860  0.48892773    -0.05100
C1272       C  0.76922976  0.63959396  0.50359969    -0.22500
H1273       H  0.78393592  0.67241951  0.50498582     0.19400
H1274       H  0.77083439  0.64492022  0.40913036     0.18200
H1275       H  0.78726652  0.67625622  0.38769271     0.14400
H1276       H  0.77103162  0.64154128  0.52662337     0.14300
H1277       H  0.79672155  0.69799055  0.47070736     0.32500
H1278       H  0.75965616  0.61927902  0.44396288     0.35200
C1279       C  0.87162755  0.73875801  0.48644732     0.20800
C1280       C  0.87877759  0.72979384  0.99426516    -0.39100
C1281       C  0.88507035  0.73497956  0.02185456     0.19800
C1282       C  0.88392170  0.74644785  0.03599489     0.22400
C1283       C  0.87627130  0.75351993  0.02382608    -0.39600
C1284       C  0.86985761  0.74823765  0.99638884     0.21200
N1285       N  0.86373241  0.73439777  0.46146539    -0.32800
C1286       C  0.85596548  0.74211939  0.45979150    -0.10400
C1287       C  0.86045747  0.75158667  0.97995184    -0.29200
N1288       N  0.89006389  0.74873283  0.06255187    -0.45800
C1289       C  0.89504023  0.73857998  0.06549150    -0.05100
C1290       C  0.89221472  0.72981764  0.04053523    -0.22500
H1291       H  0.88209583  0.72438625  0.48787544     0.19400
H1292       H  0.87490767  0.76208623  0.03534866     0.18200
H1293       H  0.85640327  0.75938716  0.98530716     0.14400
H1294       H  0.89457546  0.72060247  0.03694409     0.14300
H1295       H  0.86327117  0.72629254  0.44685802     0.32500
H1296       H  0.89038715  0.75638325  0.07810768     0.35200
C1297       C  0.88118312  0.74565308  0.24601613     0.20800
C1298       C  0.88169332  0.75255892  0.27263306    -0.39100
C1299       C  0.86770832  0.74616140  0.28761288     0.19800
C1300       C  0.85428072  0.73377625  0.27694785     0.22400
C1301       C  0.85375288  0.72693190  0.25029777    -0.39600
C1302       C  0.86769993  0.73337437  0.23526663     0.21200
N1303       N  0.89304712  0.74905290  0.22835575    -0.32800
C1304       C  0.88705273  0.73885114  0.20626462    -0.10400
C1305       C  0.87126562  0.72896779  0.20970030    -0.29200
N1306       N  0.84272549  0.72938356  0.29582402    -0.45800
C1307       C  0.84880369  0.73906558  0.31863146    -0.05100
C1308       C  0.86434559  0.74973629  0.31430177    -0.22500
H1309       H  0.89225735  0.76201490  0.28129563     0.19400
H1310       H  0.84331752  0.71711268  0.24213434     0.18200
H1311       H  0.86357571  0.71944047  0.19595502     0.14400
H1312       H  0.87220787  0.75860169  0.32904530     0.14300
H1313       H  0.90457677  0.75746402  0.23156506     0.32500
H1314       H  0.83146545  0.72019186  0.29357253     0.35200
C1315       C  0.89691796  0.67418217  0.20617814     0.20800
C1316       C  0.89328214  0.66624631  0.23238547    -0.39100
C1317       C  0.88558904  0.65024110  0.23022813     0.19800
C1318       C  0.88188216  0.64265666  0.20392595     0.22400
C1319       C  0.88549277  0.65062656  0.17758957    -0.39600
C1320       C  0.89310128  0.66670539  0.17975849     0.21200
N1321       N  0.90300356  0.68932767  0.20271312    -0.32800
C1322       C  0.90290078  0.69159967  0.17395282    -0.10400
C1323       C  0.89691895  0.67777808  0.15878118    -0.29200
N1324       N  0.87336599  0.62739898  0.20785289    -0.45800
C1325       C  0.87146790  0.62535260  0.23679271    -0.05100
C1326       C  0.87904966  0.63931529  0.25143976    -0.22500
H1327       H  0.89566767  0.67210078  0.25297983     0.19400
H1328       H  0.88203495  0.64473281  0.15700892     0.18200
H1329       H  0.89490404  0.67599353  0.13576741     0.14400
H1330       H  0.87893599  0.64126159  0.27437962     0.14300
H1331       H  0.90625191  0.69754458  0.21906306     0.32500
H1332       H  0.86830256  0.61898614  0.19181168     0.35200
C1333       C  0.01032165  0.79471830  0.11784432     0.20800
C1334       C  0.99655315  0.79513643  0.11953504    -0.39100
C1335       C  0.98320520  0.78105196  0.12553954     0.19800
C1336       C  0.98361636  0.76764538  0.12928527     0.22400
C1337       C  0.99731472  0.76724969  0.12776050    -0.39600
C1338       C  0.01059220  0.78127035  0.12203465     0.21200
N1339       N  0.02460299  0.80644480  0.11241156    -0.32800
C1340       C  0.03391178  0.80031253  0.11339979    -0.10400
C1341       C  0.02559108  0.78469070  0.11940583    -0.29200
N1342       N  0.96947971  0.75575205  0.13418834    -0.45800
C1343       C  0.95991822  0.76154425  0.13375687    -0.05100
C1344       C  0.96801616  0.77731488  0.12851408    -0.22500
H1345       H  0.99625101  0.80560979  0.11639403     0.19400
H1346       H  0.99760994  0.75676471  0.13080100     0.18200
H1347       H  0.02995529  0.77687247  0.12149642     0.14400
H1348       H  0.96338860  0.78492000  0.12665778     0.14300
H1349       H  0.02783165  0.81786837  0.10853108     0.32500
H1350       H  0.96649445  0.74434605  0.13749221     0.35200
C1351       C  0.09946575  0.77968197  0.04552329     0.20800
C1352       C  0.10422356  0.77527213  0.02077106    -0.39100
C1353       C  0.11273733  0.76795640  0.02565838     0.19800
C1354       C  0.11615033  0.76508390  0.05313564     0.22400
C1355       C  0.11141793  0.76953258  0.07796758    -0.39600
C1356       C  0.10299526  0.77699454  0.07305899     0.21200
N1357       N  0.09257218  0.78812708  0.04649696    -0.32800
C1358       C  0.09190786  0.79106957  0.07479682    -0.10400
C1359       C  0.09813045  0.78417460  0.09208844    -0.29200
N1360       N  0.12533817  0.75897599  0.05186213    -0.45800
C1361       C  0.12792299  0.75818941  0.02339621    -0.05100
C1362       C  0.12019314  0.76358937  0.00641136    -0.22500
H1363       H  0.10203031  0.77794261  0.99926311     0.19400
H1364       H  0.11461575  0.76789610  0.09946034     0.18200
H1365       H  0.09979144  0.78514728  0.11525621     0.14400
H1366       H  0.11835767  0.76040310  0.48890890     0.14300
H1367       H  0.08942139  0.79245511  0.02890907     0.32500
H1368       H  0.13018854  0.75626373  0.06924825     0.35200
C1369       C  0.22738309  0.33495520  0.00759239     0.20800
C1370       C  0.21910998  0.31928640  0.00029454    -0.39100
C1371       C  0.21316154  0.30908452  0.02362793     0.19800
C1372       C  0.21519964  0.31415392  0.05195987     0.22400
C1373       C  0.22357046  0.32974469  0.05923255    -0.39600
C1374       C  0.22961594  0.33989740  0.03601474     0.21200
N1375       N  0.23307273  0.34700767  0.98952243    -0.32800
C1376       C  0.23895564  0.35963292  0.00669759    -0.10400
C1377       C  0.23716011  0.35564684  0.03575996    -0.29200
N1378       N  0.20743794  0.30237231  0.07004346    -0.45800
C1379       C  0.20044928  0.28967558  0.05320291    -0.05100
C1380       C  0.20382187  0.29333325  0.02412249    -0.22500
H1381       H  0.21702365  0.31535639  0.97811196     0.19400
H1382       H  0.22484263  0.33370856  0.08132681     0.18200
H1383       H  0.24005738  0.36322498  0.05419322     0.14400
H1384       H  0.19939709  0.28561566  0.00579522     0.14300
H1385       H  0.23315969  0.34657068  0.47309765     0.32500
H1386       H  0.20655332  0.30297509  0.09239354     0.35200
C1387       C  0.22538040  0.20716749  0.11878787     0.20800
C1388       C  0.22602630  0.22102374  0.11226784    -0.39100
C1389       C  0.21180415  0.22005640  0.10728710     0.19800
C1390       C  0.19795384  0.20631622  0.10834427     0.22400
C1391       C  0.19730036  0.19241996  0.11512711    -0.39600
C1392       C  0.21156831  0.19341339  0.12045971     0.21200
N1393       N  0.23733555  0.20510296  0.12424419    -0.32800
C1394       C  0.23114143  0.18996162  0.12973207    -0.10400
C1395       C  0.21508966  0.18224415  0.12766068    -0.29200
N1396       N  0.18607412  0.20857104  0.10268411    -0.45800
C1397       C  0.19248424  0.22387058  0.09831571    -0.05100
C1398       C  0.20847401  0.23138934  0.10107900    -0.22500
H1399       H  0.23682063  0.23178967  0.11126348     0.19400
H1400       H  0.18650541  0.18166578  0.11627375     0.18200
H1401       H  0.20713527  0.17010726  0.13052721     0.14400
H1402       H  0.21656497  0.24355059  0.09899853     0.14300
H1403       H  0.24901234  0.21347890  0.12418206     0.32500
H1404       H  0.17436493  0.20030827  0.10236025     0.35200
C1405       C  0.34477727  0.22377807  0.22849401     0.20800
C1406       C  0.32894471  0.21477001  0.23392031    -0.39100
C1407       C  0.31920786  0.21113448  0.20979010     0.19800
C1408       C  0.32480050  0.21589435  0.18222223     0.22400
C1409       C  0.34066454  0.22492590  0.17677755    -0.39600
C1410       C  0.35041903  0.22874160  0.20102089     0.21200
N1411       N  0.35637927  0.22790788  0.24750987    -0.32800
C1412       C  0.36953228  0.23551834  0.23210917    -0.10400
C1413       C  0.36630287  0.23642055  0.20305513    -0.29200
N1414       N  0.31320484  0.20998365  0.16276135    -0.45800
C1415       C  0.30017012  0.20150131  0.17814094    -0.05100
C1416       C  0.30344205  0.20201469  0.20752903    -0.22500
H1417       H  0.32454550  0.21058487  0.25527952     0.19400
H1418       H  0.34510137  0.22839106  0.15518611     0.18200
H1419       H  0.37443883  0.24120702  0.18554222     0.14400
H1420       H  0.29544960  0.19582897  0.22470602     0.14300
H1421       H  0.35540033  0.22509054  0.26938379     0.32500
H1422       H  0.31414229  0.21118507  0.14036158     0.35200
C1423       C  0.25906917  0.12560310  0.98674343     0.20800
C1424       C  0.26619494  0.14008007  0.00006224    -0.39100
C1425       C  0.25954218  0.14100958  0.02589541     0.19800
C1426       C  0.24673881  0.12848077  0.03758481     0.22400
C1427       C  0.23969704  0.11393981  0.02439606    -0.39600
C1428       C  0.24637295  0.11299953  0.99851662     0.21200
N1429       N  0.26445217  0.12058084  0.46078241    -0.32800
C1430       C  0.25488373  0.10530038  0.45693519    -0.10400
C1431       C  0.24403572  0.09916808  0.47895874    -0.29200
N1432       N  0.24302347  0.13225869  0.06287343    -0.45800
C1433       C  0.25366959  0.14722780  0.06741304    -0.05100
C1434       C  0.26410019  0.15310649  0.04476568    -0.22500
H1435       H  0.27633472  0.14984672  0.99120081     0.19400
H1436       H  0.22990580  0.10404536  0.03382078     0.18200
H1437       H  0.23512735  0.08731618  0.48176645     0.14400
H1438       H  0.27400445  0.16452938  0.04289595     0.14300
H1439       H  0.27373778  0.12796729  0.44785579     0.32500
H1440       H  0.23420090  0.12496160  0.07674622     0.35200
C1441       C  0.25967188  0.12633264  0.23435302     0.20800
C1442       C  0.26739476  0.11949641  0.24726791    -0.39100
C1443       C  0.26137943  0.11210999  0.27358744     0.19800
C1444       C  0.24863638  0.11158111  0.28605930     0.22400
C1445       C  0.24095710  0.11849808  0.27320746    -0.39600
C1446       C  0.24699031  0.12590766  0.24688661     0.21200
N1447       N  0.26346599  0.13448431  0.20986179    -0.32800
C1448       C  0.25321676  0.13938660  0.20685517    -0.10400
C1449       C  0.24272396  0.13426370  0.22948131    -0.29200
N1450       N  0.24550634  0.10430295  0.31153376    -0.45800
C1451       C  0.25636488  0.10023352  0.31536851    -0.05100
C1452       C  0.26645786  0.10486866  0.29212898    -0.22500
H1453       H  0.27748987  0.12009442  0.23773934     0.19400
H1454       H  0.23117130  0.11833911  0.28320130     0.18200
H1455       H  0.23351677  0.13667505  0.23309042     0.14400
H1456       H  0.27639430  0.10349117  0.28953623     0.14300
H1457       H  0.27275775  0.13697165  0.19647548     0.32500
H1458       H  0.23676369  0.10255606  0.32579455     0.35200
C1459       C  0.34801603  0.11267307  0.47436327     0.20800
C1460       C  0.33213160  0.10350433  0.47939831    -0.39100
C1461       C  0.32257774  0.09936074  0.45483255     0.19800
C1462       C  0.32840413  0.10412282  0.42739192     0.22400
C1463       C  0.34428196  0.11308168  0.42231828    -0.39600
C1464       C  0.35383519  0.11708393  0.44682146     0.21200
N1465       N  0.35939848  0.11914419  0.49419451    -0.32800
C1466       C  0.37254912  0.12759304  0.47911188    -0.10400
C1467       C  0.36956031  0.12648644  0.44951762    -0.29200
N1468       N  0.31692182  0.09995384  0.40806197    -0.45800
C1469       C  0.30369127  0.09243013  0.42325974    -0.05100
C1470       C  0.30672786  0.09167181  0.45244767    -0.22500
H1471       H  0.32751667  0.10029774  0.50093816     0.19400
H1472       H  0.34883498  0.11709407  0.40097222     0.18200
H1473       H  0.37769282  0.13246268  0.43241809     0.14400
H1474       H  0.29848059  0.08701561  0.46981037     0.14300
H1475       H  0.35924411  0.12199101  0.01864042     0.32500
H1476       H  0.31802085  0.10263633  0.38611749     0.35200
C1477       C  0.21476119  0.88949594  0.32234805     0.20800
C1478       C  0.22271026  0.88183931  0.32973891    -0.39100
C1479       C  0.22721535  0.87611563  0.30652578     0.19800
C1480       C  0.22395194  0.87782301  0.27814630     0.22400
C1481       C  0.21613133  0.88559704  0.27074449    -0.39600
C1482       C  0.21170362  0.89139367  0.29393915     0.21200
N1483       N  0.20815732  0.89483484  0.34045922    -0.32800
C1484       C  0.20084976  0.90015348  0.32348223    -0.10400
C1485       C  0.20292609  0.89837030  0.29432226    -0.29200
N1486       N  0.22843771  0.87039962  0.26020366    -0.45800
C1487       C  0.23465592  0.86397974  0.27723121    -0.05100
C1488       C  0.23420303  0.86734955  0.30626582    -0.22500
H1489       H  0.22478198  0.88003319  0.35195199     0.19400
H1490       H  0.21325704  0.88660927  0.24861119     0.18200
H1491       H  0.19787177  0.90091978  0.27598375     0.14400
H1492       H  0.23783849  0.86334278  0.32470864     0.14300
H1493       H  0.20803982  0.89426934  0.36296921     0.32500
H1494       H  0.22696639  0.86939004  0.23781825     0.35200
C1495       C  0.12573546  0.88144793  0.25029268     0.20800
C1496       C  0.11996210  0.88184786  0.22280045    -0.39100
C1497       C  0.11182304  0.86767371  0.20838527     0.19800
C1498       C  0.10969084  0.85418599  0.22043729     0.22400
C1499       C  0.11530063  0.85376190  0.24797988    -0.39600
C1500       C  0.12338585  0.86788427  0.26235804     0.21200
N1501       N  0.13485266  0.89345232  0.26746028    -0.32800
C1502       C  0.13834805  0.88741951  0.29043197    -0.10400
C1503       C  0.13129263  0.87152377  0.28815433    -0.29200
N1504       N  0.10250215  0.84245686  0.20175536    -0.45800
C1505       C  0.09992452  0.84844926  0.17766373    -0.05100
C1506       C  0.10548154  0.86413568  0.18097959    -0.22500
H1507       H  0.12205515  0.89245983  0.21300592     0.19400
H1508       H  0.11391517  0.84327804  0.25715245     0.18200
H1509       H  0.13245020  0.86377032  0.30272140     0.14400
H1510       H  0.10541773  0.87197153  0.16510624     0.14300
H1511       H  0.13898036  0.90504141  0.26324060     0.32500
H1512       H  0.09978406  0.83111959  0.20497149     0.35200
C1513       C  0.11205018  0.86351215  0.49856136     0.20800
C1514       C  0.11185749  0.87078275  0.47277457    -0.39100
C1515       C  0.12601098  0.87879409  0.45829594     0.19800
C1516       C  0.13926388  0.87938122  0.46864807     0.22400
C1517       C  0.13947658  0.87223242  0.49444927    -0.39600
C1518       C  0.12632693  0.86817879  0.01020136     0.21200
N1519       N  0.10116057  0.85928249  0.01752272    -0.32800
C1520       C  0.10674497  0.85389632  0.03832441    -0.10400
C1521       C  0.12238533  0.85924459  0.03453992    -0.29200
N1522       N  0.15105486  0.88714490  0.45047811    -0.45800
C1523       C  0.14536061  0.89164788  0.42840410    -0.05100
C1524       C  0.12977443  0.88670063  0.43250376    -0.22500
H1525       H  0.10143968  0.87010916  0.46444127     0.19400
H1526       H  0.15044321  0.87546134  0.00284565     0.18200
H1527       H  0.12976648  0.85658742  0.04741842     0.14400
H1528       H  0.12214534  0.88828479  0.41815136     0.14300
H1529       H  0.08982619  0.85691520  0.01498710     0.32500
H1530       H  0.16223765  0.88902764  0.45268809     0.35200
C1531       C  0.20040547  0.98330970  0.36676793     0.20800
C1532       C  0.20008704  0.99699576  0.37013231    -0.39100
C1533       C  0.21452390  0.01045097  0.37304244     0.19800
C1534       C  0.22822306  0.01029759  0.37230897     0.22400
C1535       C  0.22853988  0.99663098  0.36908715    -0.39600
C1536       C  0.21412666  0.98318811  0.36654236     0.21200
N1537       N  0.18829054  0.96894715  0.36420356    -0.32800
C1538       C  0.19439579  0.95965376  0.36274240    -0.10400
C1539       C  0.21044732  0.96812116  0.36408671    -0.29200
N1540       N  0.24035735  0.02455652  0.37560187    -0.45800
C1541       C  0.23436327  0.03387288  0.37869184    -0.05100
C1542       C  0.21828953  0.02549724  0.37724722    -0.22500
H1543       H  0.18939390  0.99714440  0.37074848     0.19400
H1544       H  0.23922334  0.99645231  0.36891172     0.18200
H1545       H  0.21835667  0.96379946  0.36346922     0.14400
H1546       H  0.21043527  0.02984200  0.37905599     0.14300
H1547       H  0.17662161  0.96564731  0.36397578     0.32500
H1548       H  0.25199290  0.02773971  0.37601732     0.35200
C1549       C  0.89481600  0.21669392  0.43509649     0.20800
C1550       C  0.88742929  0.22510040  0.42947971    -0.39100
C1551       C  0.88330808  0.23044711  0.45382793     0.19800
C1552       C  0.88624227  0.22756826  0.48168312     0.22400
C1553       C  0.89377918  0.21930658  0.48729525    -0.39600
C1554       C  0.89794129  0.21399802  0.46293550     0.21200
N1555       N  0.89885385  0.20942801  0.41578003    -0.32800
C1556       C  0.90460802  0.20207624  0.43143011    -0.10400
C1557       C  0.90430826  0.20471946  0.46090416    -0.29200
N1558       N  0.87963401  0.23233830  0.50102371    -0.45800
C1559       C  0.87242841  0.23824325  0.48533901    -0.05100
C1560       C  0.87465208  0.23749793  0.45586968    -0.22500
H1561       H  0.88453910  0.22681458  0.40778596     0.19400
H1562       H  0.89568211  0.21665476  0.50902937     0.18200
H1563       H  0.90766528  0.19993929  0.47850294     0.14400
H1564       H  0.86954866  0.24053385  0.43830192     0.14300
H1565       H  0.89734514  0.20909221  0.39341537     0.32500
H1566       H  0.88169655  0.23114319  0.02630264     0.35200
C1567       C  0.12407359  0.34522930  0.29175004     0.20800
C1568       C  0.12040661  0.33585758  0.31625997    -0.39100
C1569       C  0.11090236  0.32004596  0.31132983     0.19800
C1570       C  0.10544334  0.31407147  0.28406965     0.22400
C1571       C  0.10910584  0.32342894  0.25961059    -0.39600
C1572       C  0.11864647  0.33920779  0.26451132     0.21200
N1573       N  0.13366818  0.36048215  0.29036203    -0.32800
C1574       C  0.13443094  0.36415568  0.26203052    -0.10400
C1575       C  0.12517412  0.35120371  0.24525735    -0.29200
N1576       N  0.09759987  0.29867616  0.28468435    -0.45800
C1577       C  0.09818363  0.29478351  0.31243897    -0.05100
C1578       C  0.10625295  0.30778818  0.32981512    -0.22500
H1579       H  0.12502648  0.34048759  0.33743019     0.19400
H1580       H  0.10523280  0.31871884  0.23818651     0.18200
H1581       H  0.12386374  0.35057360  0.22201501     0.14400
H1582       H  0.10904363  0.30820366  0.35251848     0.14300
H1583       H  0.13979498  0.36784613  0.30746298     0.32500
H1584       H  0.09280610  0.29126486  0.26704428     0.35200
C1585       C  0.11305973  0.24673083  0.45277276     0.20800
C1586       C  0.11863347  0.25236718  0.48047858    -0.39100
C1587       C  0.12477007  0.24882218  0.99132392     0.19800
C1588       C  0.12870945  0.23482145  0.48175966     0.22400
C1589       C  0.12303694  0.22908654  0.45392435    -0.39600
C1590       C  0.11506322  0.23545558  0.43998866     0.21200
N1591       N  0.10570441  0.25140305  0.43486590    -0.32800
C1592       C  0.10286905  0.24301528  0.41046367    -0.10400
C1593       C  0.10848711  0.23289137  0.41277880    -0.29200
N1594       N  0.13370152  0.23257321  0.99725943    -0.45800
C1595       C  0.13791461  0.24221513  0.02023051    -0.05100
C1596       C  0.13243172  0.25239388  0.01740752    -0.22500
H1597       H  0.11744522  0.26565542  0.98563069     0.19400
H1598       H  0.12491018  0.22052456  0.44370489     0.18200
H1599       H  0.10816882  0.22504765  0.39649597     0.14400
H1600       H  0.13445279  0.26166810  0.03184949     0.14300
H1601       H  0.10297409  0.25994862  0.43884510     0.32500
H1602       H  0.14127309  0.22375009  0.49474450     0.35200
C1603       C  0.12744543  0.23611633  0.18997273     0.20800
C1604       C  0.11280823  0.23016967  0.20234557    -0.39100
C1605       C  0.11251898  0.23615081  0.22952498     0.19800
C1606       C  0.12582323  0.24712365  0.24331515     0.22400
C1607       C  0.14043413  0.25303762  0.23098950    -0.39600
C1608       C  0.14070745  0.24715798  0.20377491     0.21200
N1609       N  0.13072946  0.23310195  0.16357379    -0.32800
C1610       C  0.14614415  0.24241410  0.16052249    -0.10400
C1611       C  0.15278920  0.25128354  0.18517308    -0.29200
N1612       N  0.12244917  0.25150725  0.26821854    -0.45800
C1613       C  0.10688955  0.24335925  0.27030405    -0.05100
C1614       C  0.10025471  0.23358883  0.24664764    -0.22500
H1615       H  0.10238787  0.22184681  0.19126247     0.19400
H1616       H  0.15077952  0.26191146  0.24143883     0.18200
H1617       H  0.16473560  0.25999359  0.18855642     0.14400
H1618       H  0.08811571  0.22600212  0.24219562     0.14300
H1619       H  0.12290221  0.22565484  0.14814272     0.32500
H1620       H  0.13023054  0.25984870  0.28254883     0.35200
C1621       C  0.01324011  0.20929689  0.35780516     0.20800
C1622       C  0.99977836  0.19508538  0.36249079    -0.39100
C1623       C  0.98676741  0.19578769  0.37132314     0.19800
C1624       C  0.98720538  0.20960418  0.37520619     0.22400
C1625       C  0.00063435  0.22376705  0.37061019    -0.39600
C1626       C  0.01358558  0.22306161  0.36177049     0.21200
N1627       N  0.02721427  0.21180912  0.34993476    -0.32800
C1628       C  0.03650250  0.22727935  0.34913111    -0.10400
C1629       C  0.02837840  0.23466264  0.35620781    -0.29200
N1630       N  0.97329856  0.20725844  0.38280477    -0.45800
C1631       C  0.96382474  0.19184035  0.38363844    -0.05100
C1632       C  0.97182852  0.18425985  0.37681503    -0.22500
H1633       H  0.99944618  0.18429170  0.35940396     0.19400
H1634       H  0.00096397  0.23456398  0.37364507     0.18200
H1635       H  0.03281827  0.24688825  0.35783939     0.14400
H1636       H  0.96723804  0.17200920  0.37524930     0.14300
H1637       H  0.03034723  0.20354679  0.34613871     0.32500
H1638       H  0.97033045  0.21565312  0.38651603     0.35200
C1639       C  0.86738352  0.12678779  0.24060044     0.20800
C1640       C  0.87581809  0.14164842  0.25243322    -0.39100
C1641       C  0.88299860  0.14279403  0.27919405     0.19800
C1642       C  0.88192044  0.13008183  0.29280551     0.22400
C1643       C  0.87348195  0.11525869  0.28101270    -0.39600
C1644       C  0.86621345  0.11409525  0.25444978     0.21200
N1645       N  0.85912423  0.12257642  0.21595915    -0.32800
C1646       C  0.85258854  0.10710834  0.21416114    -0.10400
C1647       C  0.85674480  0.10137728  0.23778300    -0.29200
N1648       N  0.88932139  0.13401888  0.31831609    -0.45800
C1649       C  0.89508654  0.14931414  0.32131266    -0.05100
C1650       C  0.89142538  0.15526900  0.29727280    -0.22500
H1651       H  0.87649771  0.15152737  0.24183326     0.19400
H1652       H  0.87243566  0.10531561  0.29199904     0.18200
H1653       H  0.85317068  0.08952744  0.24232056     0.14400
H1654       H  0.89422084  0.16699994  0.29381654     0.14300
H1655       H  0.85781302  0.12976563  0.20142180     0.32500
H1656       H  0.89005179  0.12663993  0.33322530     0.35200
C1657       C  0.86758402  0.11563469  0.04498485     0.20800
C1658       C  0.88233781  0.12300689  0.03259268    -0.39100
C1659       C  0.88333154  0.12905141  0.00484242     0.19800
C1660       C  0.87433257  0.12343255  0.48715679     0.22400
C1661       C  0.85589084  0.12057659  0.00311624    -0.39600
C1662       C  0.85489326  0.11452515  0.03077373     0.21200
N1663       N  0.86356540  0.10897755  0.07107993    -0.32800
C1664       C  0.84822007  0.10360533  0.07347695    -0.10400
C1665       C  0.84241318  0.10688977  0.04879369    -0.29200
N1666       N  0.87812710  0.13042631  0.46141101    -0.45800
C1667       C  0.89367693  0.13948885  0.46169558    -0.05100
C1668       C  0.89991595  0.13811735  0.48780041    -0.22500
H1669       H  0.89231104  0.12403974  0.04379562     0.19400
H1670       H  0.84922517  0.11057379  0.48467965     0.18200
H1671       H  0.83066332  0.10410280  0.04464424     0.14400
H1672       H  0.91187568  0.14437048  0.49459900     0.14300
H1673       H  0.87082181  0.10820052  0.08639258     0.32500
H1674       H  0.87052475  0.12958306  0.44504930     0.35200
C1675       C  0.77902489  0.09994913  0.20306470     0.20800
C1676       C  0.77474687  0.10437567  0.22842139    -0.39100
C1677       C  0.76776599  0.11327598  0.22467490     0.19800
C1678       C  0.76508193  0.11736017  0.19766637     0.22400
C1679       C  0.76945249  0.11299204  0.17221390    -0.39600
C1680       C  0.77660631  0.10418375  0.17598511     0.21200
N1681       N  0.78716098  0.09275958  0.20121207    -0.32800
C1682       C  0.79024365  0.09259347  0.17285674    -0.10400
C1683       C  0.78372053  0.09949081  0.15631353    -0.29200
N1684       N  0.75946310  0.12692106  0.20010852    -0.45800
C1685       C  0.75884586  0.12911726  0.22883433    -0.05100
C1686       C  0.76379981  0.12068918  0.24482801    -0.22500
H1687       H  0.77731592  0.10167216  0.24959850     0.19400
H1688       H  0.76802556  0.11675940  0.15114454     0.18200
H1689       H  0.78489572  0.10167525  0.13334342     0.14400
H1690       H  0.76519458  0.12072305  0.26801355     0.14300
H1691       H  0.79125803  0.08909359  0.21842723     0.32500
H1692       H  0.75712313  0.13237499  0.18331611     0.35200
C1693       C  0.76360545  0.86387002  0.44269204     0.20800
C1694       C  0.76623021  0.86586039  0.47261924    -0.39100
C1695       C  0.76664882  0.87887788  0.48451962     0.19800
C1696       C  0.75939024  0.89013686  0.96870986     0.22400
C1697       C  0.76210332  0.88718775  0.43795039    -0.39600
C1698       C  0.76152989  0.87410910  0.42611359     0.21200
N1699       N  0.76202397  0.85210938  0.42639452    -0.32800
C1700       C  0.75878064  0.85483315  0.39932205    -0.10400
C1701       C  0.75840775  0.86845458  0.39830106    -0.29200
N1702       N  0.75826845  0.90050375  0.98518185    -0.45800
C1703       C  0.76220417  0.89866215  0.01231231    -0.05100
C1704       C  0.76608319  0.88718507  0.01305666    -0.22500
H1705       H  0.76731034  0.85759588  0.48581784     0.19400
H1706       H  0.76008723  0.89494708  0.42501583     0.18200
H1707       H  0.75606811  0.87348403  0.37972314     0.14400
H1708       H  0.76893155  0.88270602  0.03185097     0.14300
H1709       H  0.76289610  0.84271986  0.43330480     0.32500
H1710       H  0.75414056  0.90770680  0.97873821     0.35200
C1711       C  0.76814521  0.88873693  0.19063435     0.20800
C1712       C  0.77397796  0.88960568  0.21870019    -0.39100
C1713       C  0.77221880  0.87584950  0.22984012     0.19800
C1714       C  0.76541706  0.86236522  0.21394258     0.22400
C1715       C  0.75958711  0.86150272  0.18598537    -0.39600
C1716       C  0.76106385  0.87513582  0.17512267     0.21200
N1717       N  0.76743962  0.89988499  0.17593375    -0.32800
C1718       C  0.75959578  0.89322346  0.15119818    -0.10400
C1719       C  0.75547025  0.87781316  0.14989862    -0.29200
N1720       N  0.76351446  0.85055158  0.23024006    -0.45800
C1721       C  0.76879758  0.85638026  0.25693298    -0.05100
C1722       C  0.77454600  0.87219758  0.25747961    -0.22500
H1723       H  0.77883799  0.90002920  0.23142901     0.19400
H1724       H  0.75362757  0.85079561  0.17412455     0.18200
H1725       H  0.74910881  0.86964231  0.13289060     0.14400
H1726       H  0.77845965  0.87969337  0.27615569     0.14300
H1727       H  0.77164097  0.91120034  0.18263483     0.32500
H1728       H  0.75765590  0.83898225  0.22425633     0.35200
C1729       C  0.78929658  0.98594249  0.10882736     0.20800
C1730       C  0.80321744  0.99997918  0.11200247    -0.39100
C1731       C  0.80184024  0.01264987  0.12035319     0.19800
C1732       C  0.78765259  0.01141458  0.12485817     0.22400
C1733       C  0.77376525  0.99739886  0.12181088    -0.39600
C1734       C  0.77515435  0.98472575  0.11381515     0.21200
N1735       N  0.78747236  0.97219148  0.10148192    -0.32800
C1736       C  0.77207716  0.96211431  0.10217820    -0.10400
C1737       C  0.76402750  0.96952776  0.10975104    -0.29200
N1738       N  0.78936758  0.02509600  0.13213515    -0.45800
C1739       C  0.80475282  0.03518733  0.13245879    -0.05100
C1740       C  0.81294556  0.02783792  0.12530907    -0.22500
H1741       H  0.81430442  0.00094922  0.10835047     0.19400
H1742       H  0.76267906  0.99641881  0.12554782     0.18200
H1743       H  0.75169045  0.96445872  0.11204144     0.14400
H1744       H  0.82530907  0.03296148  0.12346970     0.14300
H1745       H  0.79616902  0.96975152  0.09675826     0.32500
H1746       H  0.78057889  0.02746242  0.13644022     0.35200
C1747       C  0.68512479  0.89258791  0.03774798     0.20800
C1748       C  0.67502349  0.88912638  0.01418484    -0.39100
C1749       C  0.65926871  0.88050332  0.02052696     0.19800
C1750       C  0.65399298  0.87582936  0.04829188     0.22400
C1751       C  0.66410672  0.87914905  0.07181481    -0.39600
C1752       C  0.67987655  0.88767666  0.06543766     0.21200
N1753       N  0.70058503  0.89998902  0.03711799    -0.32800
C1754       C  0.70524735  0.89964406  0.06449057    -0.10400
C1755       C  0.69266895  0.89211879  0.08285702    -0.29200
N1756       N  0.63853526  0.86728484  0.04845640    -0.45800
C1757       C  0.63395120  0.86629764  0.02057038    -0.05100
C1758       C  0.64654466  0.87442267  0.00248789    -0.22500
H1759       H  0.67914029  0.89258044  0.99240919     0.19400
H1760       H  0.65999872  0.87509507  0.09337154     0.18200
H1761       H  0.69284705  0.88980121  0.10561275     0.14400
H1762       H  0.64617129  0.86792346  0.47693197     0.14300
H1763       H  0.70753699  0.90453418  0.01896089     0.32500
H1764       H  0.63157084  0.86184001  0.06624097     0.35200
In1765     In  0.75178011  0.91167503  0.58230410     1.36900
C1766       C  0.76197816  0.90260939  0.53744583     0.78100
O1767       O  0.76328544  0.91208836  0.62474713    -0.60400
O1768       O  0.74584499  0.89060135  0.60851309    -0.51300
C1769       C  0.76640500  0.94187113  0.59397564     0.70700
O1770       O  0.77341181  0.93525575  0.58495450    -0.46200
C1771       C  0.72224251  0.90235656  0.56868768     0.75400
O1772       O  0.76012390  0.91405816  0.53616708    -0.58000
O1773       O  0.72662322  0.90232094  0.59426724    -0.48100
O1774       O  0.75964706  0.89654408  0.56195265    -0.54400
C1775       C  0.75584177  0.89773475  0.62787349     0.85600
O1776       O  0.75209389  0.93311023  0.59681741    -0.56300
O1777       O  0.73287179  0.90716313  0.55043923    -0.59600
In1778     In  0.82665178  0.07891502  0.64410238     1.36900
C1779       C  0.84585711  0.09453601  0.68756911     0.78100
O1780       O  0.84879091  0.09054669  0.61894214    -0.60400
O1781       O  0.82833331  0.08599066  0.59718645    -0.51300
C1782       C  0.81445584  0.04840890  0.63566238     0.70700
O1783       O  0.82825897  0.05709608  0.64342328    -0.46200
C1784       C  0.80538543  0.08584519  0.66064180     0.75400
O1785       O  0.83929375  0.08006809  0.68588030    -0.58000
O1786       O  0.81135885  0.08907326  0.63590497    -0.48100
O1787       O  0.84275578  0.10074257  0.66706241    -0.54400
C1788       C  0.84273843  0.09171208  0.59595580     0.85600
O1789       O  0.80692197  0.05521023  0.63281749    -0.56300
O1790       O  0.80954676  0.07826511  0.67609703    -0.59600
In1791     In  0.08159222  0.25140780  0.83256755     1.36900
C1792       C  0.09653646  0.24581535  0.79174788     0.78100
O1793       O  0.08431670  0.26811635  0.79787195    -0.60400
O1794       O  0.09089727  0.27659289  0.84070503    -0.51300
C1795       C  0.05095640  0.23581171  0.84020747     0.70700
O1796       O  0.05848313  0.22924055  0.83474112    -0.46200
C1797       C  0.09364659  0.24754059  0.88125734     0.75400
O1798       O  0.08198517  0.23927259  0.79182426    -0.58000
O1799       O  0.09188152  0.25891191  0.87722293    -0.48100
O1800       O  0.10318888  0.25493505  0.81245502    -0.54400
C1801       C  0.09007360  0.27960164  0.81452156     0.85600
O1802       O  0.05895331  0.25019106  0.84092611    -0.56300
O1803       O  0.08880341  0.23795217  0.86091226    -0.59600
In1804     In  0.91496520  0.17038419  0.89709780     1.36900
C1805       C  0.89904171  0.15056434  0.93858998     0.78100
O1806       O  0.91602519  0.18546471  0.93352268    -0.60400
O1807       O  0.90734090  0.18786638  0.89309290    -0.51300
C1808       C  0.94531822  0.18372086  0.88785841     0.70700
O1809       O  0.93743935  0.17007936  0.89648984    -0.46200
C1810       C  0.90208702  0.15513694  0.84806232     0.75400
O1811       O  0.91357168  0.15709191  0.93733628    -0.58000
O1812       O  0.90427939  0.16839382  0.85289415    -0.48100
O1813       O  0.89278518  0.15368345  0.91805439    -0.54400
C1814       C  0.91024994  0.19197999  0.91921453     0.85600
O1815       O  0.93773837  0.19039471  0.88413194    -0.56300
O1816       O  0.90664292  0.14986698  0.86797673    -0.59600
In1817     In  0.17085032  0.91289858  0.85462698     1.36900
C1818       C  0.15055844  0.89649146  0.81355453     0.78100
O1819       O  0.18643721  0.90329472  0.86191246    -0.60400
O1820       O  0.18673291  0.91302988  0.82102732    -0.51300
C1821       C  0.18676992  0.94335671  0.86163508     0.70700
O1822       O  0.19113624  0.93457970  0.87163716    -0.46200
C1823       C  0.15507416  0.90202277  0.90319597     0.75400
O1824       O  0.15714032  0.91095227  0.81439047    -0.58000
O1825       O  0.16738731  0.90210765  0.89800272    -0.48100
O1826       O  0.15397633  0.89055572  0.83411194    -0.54400
C1827       C  0.19171095  0.90621926  0.83665740     0.85600
O1828       O  0.17406922  0.93659230  0.84825846    -0.56300
O1829       O  0.15084665  0.90788188  0.88375113    -0.59600
In1830     In  0.26042924  0.08159502  0.89542834     1.36900
C1831       C  0.25532173  0.09739452  0.93572137     0.78100
O1832       O  0.27650158  0.08240596  0.92978662    -0.60400
O1833       O  0.28599008  0.09255266  0.88914795    -0.51300
C1834       C  0.24382180  0.05094303  0.88885526     0.70700
O1835       O  0.23783144  0.05928492  0.88973023    -0.46200
C1836       C  0.25741614  0.09198353  0.84451682     0.75400
O1837       O  0.24759834  0.08292746  0.93435077    -0.58000
O1838       O  0.26835207  0.08960857  0.84999831    -0.48100
O1839       O  0.26511006  0.10363695  0.91606058    -0.54400
C1840       C  0.28843341  0.08994202  0.91473759     0.85600
O1841       O  0.25822841  0.05815788  0.89202613    -0.56300
O1842       O  0.24802297  0.08882295  0.86477196    -0.59600
In1843     In  0.25792491  0.16746820  0.64378902     1.36900
C1844       C  0.25392539  0.14699638  0.68396790     0.78100
O1845       O  0.24488261  0.14766743  0.61280955    -0.60400
O1846       O  0.26613951  0.16638180  0.59918567    -0.51300
C1847       C  0.24091683  0.18091412  0.63789471     0.70700
O1848       O  0.23501179  0.16683442  0.64324159    -0.46200
C1849       C  0.28548803  0.18844793  0.66401568     0.75400
O1850       O  0.24623218  0.15376858  0.68366964    -0.58000
O1851       O  0.28322693  0.18464794  0.63768476    -0.48100
O1852       O  0.26315943  0.15032456  0.66332635    -0.54400
C1853       C  0.25482267  0.15334653  0.59323971     0.85600
O1854       O  0.25535279  0.18803861  0.63612184    -0.56300
O1855       O  0.27359309  0.18204401  0.67943959    -0.59600
In1856     In  0.17082826  0.24701783  0.58904421     1.36900
C1857       C  0.15086669  0.24181225  0.54662470     0.78100
O1858       O  0.14983228  0.23434906  0.61672771    -0.60400
O1859       O  0.16937058  0.25393139  0.63444436    -0.51300
C1860       C  0.18597925  0.23198603  0.59796500     0.70700
O1861       O  0.17169111  0.22511219  0.59295562    -0.46200
C1862       C  0.19076580  0.27508952  0.57156213     0.75400
O1863       O  0.15847740  0.23494831  0.54756328    -0.58000
O1864       O  0.18503478  0.27243899  0.59651175    -0.48100
O1865       O  0.15318704  0.25068947  0.56756141    -0.54400
C1866       C  0.15563498  0.24334806  0.63787989     0.85600
O1867       O  0.19243502  0.24635771  0.59776915    -0.56300
O1868       O  0.18661709  0.26337157  0.55600444    -0.59600
In1869     In  0.08124497  0.82137274  0.60494857     1.36900
C1870       C  0.09693666  0.84028930  0.56180357     0.78100
O1871       O  0.08859842  0.84241738  0.63243305    -0.60400
O1872       O  0.09121038  0.82441754  0.64971336    -0.51300
C1873       C  0.05065018  0.80719629  0.61232598     0.70700
O1874       O  0.05843040  0.82105722  0.60496655    -0.46200
C1875       C  0.08773762  0.79986067  0.59024409     0.75400
O1876       O  0.08238788  0.83319299  0.56260775    -0.58000
O1877       O  0.09057724  0.80576365  0.61515976    -0.48100
O1878       O  0.10328555  0.83791333  0.58313685    -0.54400
C1879       C  0.09310209  0.83762785  0.65326828     0.85600
O1880       O  0.05843528  0.80071440  0.61566040    -0.56300
O1881       O  0.08118906  0.80462800  0.57330509    -0.59600
In1882     In  0.91273860  0.73669383  0.64778196     1.36900
C1883       C  0.89600675  0.74069511  0.68683634     0.78100
O1884       O  0.90567336  0.74971157  0.61827600    -0.60400
O1885       O  0.90522263  0.72991200  0.60159958    -0.51300
C1886       C  0.94324512  0.75382749  0.64281290     0.70700
O1887       O  0.93500299  0.75958694  0.64866222    -0.46200
C1888       C  0.90631802  0.70939605  0.66769612     0.75400
O1889       O  0.91055880  0.74797055  0.68773110    -0.58000
O1890       O  0.90332003  0.71127213  0.64199244    -0.48100
O1891       O  0.89009804  0.73170233  0.66564102    -0.54400
C1892       C  0.90279935  0.74085134  0.59711051     0.85600
O1893       O  0.93595198  0.73948641  0.64002749    -0.56300
O1894       O  0.91283239  0.72146397  0.68275738    -0.59600
In1895     In  0.82320908  0.73449943  0.89568949     1.36900
C1896       C  0.84478906  0.73970232  0.93435272     0.78100
O1897       O  0.80895754  0.70889169  0.89184345    -0.60400
O1898       O  0.80739493  0.71934430  0.93051337    -0.51300
C1899       C  0.80903402  0.75063586  0.88812208     0.70700
O1900       O  0.82224275  0.75626911  0.89938989    -0.46200
C1901       C  0.83821556  0.73908268  0.84635282     0.75400
O1902       O  0.83738712  0.74678160  0.93488904    -0.58000
O1903       O  0.82462141  0.72816023  0.84969504    -0.48100
O1904       O  0.84126295  0.73023789  0.91394501    -0.54400
C1905       C  0.80336519  0.70708844  0.91679848     0.85600
O1906       O  0.80295282  0.73670633  0.88120387    -0.56300
O1907       O  0.84387017  0.74788231  0.86778409    -0.59600
In1908     In  0.75146588  0.82815220  0.83223160     1.36900
C1909       C  0.76472009  0.84558272  0.78624274     0.78100
O1910       O  0.72639333  0.81118230  0.84324791    -0.60400
O1911       O  0.73179580  0.81998429  0.80087700    -0.51300
C1912       C  0.76468578  0.81135119  0.84276989     0.70700
O1913       O  0.77233780  0.82572874  0.84007408    -0.46200
C1914       C  0.75386874  0.84568019  0.87762019     0.75400
O1915       O  0.75863180  0.83119082  0.78578050    -0.58000
O1916       O  0.75835871  0.83607159  0.87844555    -0.48100
O1917       O  0.76546903  0.85121171  0.81088201    -0.54400
C1918       C  0.72148838  0.81141748  0.81823189     0.85600
O1919       O  0.75035602  0.80554431  0.83948151    -0.56300
O1920       O  0.74778927  0.84601242  0.85399630    -0.59600
In1921     In  0.75496236  0.15995610  0.76817010     1.36900
C1922       C  0.76907621  0.18054820  0.72711048     0.78100
O1923       O  0.76398654  0.18059167  0.79713925    -0.60400
O1924       O  0.76669493  0.16210415  0.81120126    -0.51300
C1925       C  0.72508192  0.14736878  0.78190615     0.70700
O1926       O  0.73261759  0.16058081  0.77122261    -0.46200
C1927       C  0.76093166  0.13914049  0.74499184     0.75400
O1928       O  0.75458486  0.17195550  0.72741570    -0.58000
O1929       O  0.75460300  0.14523041  0.73105272    -0.48100
O1930       O  0.77614337  0.17872955  0.74793194    -0.54400
C1931       C  0.76896812  0.17535577  0.81636875     0.85600
O1932       O  0.73263957  0.14060104  0.78462710    -0.56300
O1933       O  0.76363653  0.14317004  0.77114701    -0.59600
In1934     In  0.58872072  0.07526661  0.83512585     1.36900
C1935       C  0.57289620  0.07908883  0.87675364     0.78100
O1936       O  0.57958490  0.08732405  0.80797816    -0.60400
O1937       O  0.58114920  0.06909990  0.78870184    -0.51300
C1938       C  0.61924631  0.09300159  0.82791454     0.70700
O1939       O  0.61079608  0.09854387  0.83364446    -0.46200
C1940       C  0.58182547  0.04731085  0.85197808     0.75400
O1941       O  0.58745932  0.08625345  0.87673223    -0.58000
O1942       O  0.57797280  0.04984214  0.82750512    -0.48100
O1943       O  0.56662704  0.07024856  0.85553130    -0.54400
C1944       C  0.57737245  0.07920921  0.78588729     0.85600
O1945       O  0.61215724  0.07860334  0.82621287    -0.56300
O1946       O  0.58967293  0.05911885  0.86730410    -0.59600
In1947     In  0.50268670  0.08068497  0.58586637     1.36900
C1948       C  0.52465693  0.08647478  0.62447667     0.78100
O1949       O  0.48978799  0.06376768  0.62082436    -0.60400
O1950       O  0.48733962  0.05540614  0.57781598    -0.51300
C1951       C  0.48669640  0.09529309  0.58104690     0.70700
O1952       O  0.50104113  0.10232344  0.58535624    -0.46200
C1953       C  0.51624269  0.08493059  0.53492674     0.75400
O1954       O  0.51657607  0.09283821  0.62564491    -0.58000
O1955       O  0.50320809  0.07352243  0.54019541    -0.48100
O1956       O  0.52181015  0.07765540  0.60318331    -0.54400
C1957       C  0.48395332  0.05232025  0.60408322     0.85600
O1958       O  0.48054609  0.08094488  0.58063145    -0.56300
O1959       O  0.52211915  0.09442947  0.55532224    -0.59600
In1960     In  0.41507733  0.15821616  0.51429699     1.36900
C1961       C  0.42292169  0.18012566  0.97415477     0.78100
O1962       O  0.40072150  0.14595041  0.97824234    -0.60400
O1963       O  0.38939570  0.14241533  0.51819871    -0.51300
C1964       C  0.43190557  0.14505237  0.52716046     0.70700
O1965       O  0.43783498  0.15928403  0.52356528    -0.46200
C1966       C  0.41643869  0.17232885  0.56370859     0.75400
O1967       O  0.42937042  0.17211819  0.97466737    -0.58000
O1968       O  0.40578308  0.15883326  0.55831214    -0.48100
O1969       O  0.41405913  0.17793092  0.99498285    -0.54400
C1970       C  0.38873685  0.13989189  0.99340199     0.85600
O1971       O  0.41757586  0.13754968  0.52302462    -0.56300
O1972       O  0.42624311  0.17844696  0.54401660    -0.59600
In1973     In  0.41226094  0.24508027  0.76469869     1.36900
C1974       C  0.41561109  0.22848084  0.72450983     0.78100
O1975       O  0.42569812  0.23747817  0.79211473    -0.60400
O1976       O  0.40508001  0.23517353  0.80910354    -0.51300
C1977       C  0.42901669  0.27536576  0.77352105     0.70700
O1978       O  0.43493771  0.26776022  0.76432676    -0.46200
C1979       C  0.38508290  0.23917516  0.74411688     0.75400
O1980       O  0.42373089  0.24296463  0.72499133    -0.58000
O1981       O  0.38691917  0.23624290  0.76986458    -0.48100
O1982       O  0.40600575  0.22264179  0.74462390    -0.54400
C1983       C  0.41634014  0.23307252  0.81268078     0.85600
O1984       O  0.41476598  0.26755540  0.77789695    -0.56300
O1985       O  0.39726196  0.24581663  0.72946111    -0.59600
In1986     In  0.49403151  0.41213283  0.81901480     1.36900
C1987       C  0.51378243  0.42847496  0.86068730     0.78100
O1988       O  0.51493699  0.42020249  0.79123633    -0.60400
O1989       O  0.49579169  0.42095801  0.77368284    -0.51300
C1990       C  0.48011393  0.38176971  0.81161051     0.70700
O1991       O  0.49408116  0.38970933  0.81895586    -0.46200
C1992       C  0.47280722  0.41803107  0.83782348     0.75400
O1993       O  0.50776411  0.41407387  0.85903103    -0.58000
O1994       O  0.47849290  0.42177355  0.81288296    -0.48100
O1995       O  0.50995140  0.43441529  0.84078888    -0.54400
C1996       C  0.50938669  0.42372779  0.77016586     0.85600
O1997       O  0.47337045  0.38930603  0.80819662    -0.56300
O1998       O  0.47748904  0.41067430  0.85265186    -0.59600
In1999     In  0.58389604  0.50143416  0.57127795     1.36900
C2000       C  0.56735987  0.48062140  0.61072982     0.78100
O2001       O  0.58411856  0.51667698  0.60657110    -0.60400
O2002       O  0.57446990  0.51722552  0.56580583    -0.51300
C2003       C  0.61437178  0.51529390  0.56369300     0.70700
O2004       O  0.60640132  0.50137736  0.57058869    -0.46200
C2005       C  0.57259050  0.48714516  0.52133338     0.75400
O2006       O  0.58192054  0.48751242  0.61078641    -0.58000
O2007       O  0.57463668  0.50029989  0.52654472    -0.48100
O2008       O  0.56142313  0.48413066  0.59025161    -0.54400
C2009       C  0.57735309  0.52198535  0.59156028     0.85600
O2010       O  0.60685791  0.52211968  0.56128937    -0.56300
O2011       O  0.57664178  0.48147412  0.54134424    -0.59600
In2012     In  0.75222002  0.58417727  0.52533113     1.36900
C2013       C  0.76781924  0.57972387  0.98523637     0.78100
O2014       O  0.75046137  0.59792678  0.98707259    -0.60400
O2015       O  0.76187668  0.60964163  0.52821011    -0.51300
C2016       C  0.72164528  0.56812659  0.53150119     0.70700
O2017       O  0.72968899  0.58223290  0.53688419    -0.46200
C2018       C  0.76290353  0.58139691  0.57651476     0.75400
O2019       O  0.75338753  0.57084356  0.98591717    -0.58000
O2020       O  0.76125639  0.59263340  0.57025350    -0.48100
O2021       O  0.77310126  0.59003723  0.00431756    -0.54400
C2022       C  0.75567152  0.60993132  0.00229493     0.85600
O2023       O  0.72918360  0.56201776  0.52288798    -0.56300
O2024       O  0.75882903  0.57145125  0.55687862    -0.59600
In2025     In  0.84130138  0.58619554  0.77665981     1.36900
C2026       C  0.81978816  0.58143306  0.73805559     0.78100
O2027       O  0.82165043  0.57292548  0.80682974    -0.60400
O2028       O  0.83999765  0.59426813  0.82158636    -0.51300
C2029       C  0.85551401  0.57001609  0.78296440     0.70700
O2030       O  0.84158060  0.56390149  0.77539705    -0.46200
C2031       C  0.86202875  0.61280305  0.75389968     0.75400
O2032       O  0.82609931  0.57331683  0.73900621    -0.58000
O2033       O  0.85828211  0.61144103  0.78017817    -0.48100
O2034       O  0.82419753  0.59165638  0.75729124    -0.54400
C2035       C  0.82704315  0.58269223  0.82684013     0.85600
O2036       O  0.86209946  0.58425744  0.78700773    -0.56300
O2037       O  0.85555176  0.60047816  0.73955196    -0.59600
In2038     In  0.92574811  0.50323794  0.82596084     1.36900
C2039       C  0.92177473  0.48311528  0.86676845     0.78100
O2040       O  0.91154202  0.48248539  0.79781796    -0.60400
O2041       O  0.93268432  0.50044677  0.78164268    -0.51300
C2042       C  0.90994126  0.51783345  0.81801654     0.70700
O2043       O  0.90378857  0.50437608  0.82773687    -0.46200
C2044       C  0.95357990  0.52379205  0.84508449     0.75400
O2045       O  0.91444378  0.49026802  0.86648575    -0.58000
O2046       O  0.95121092  0.51856055  0.81966504    -0.48100
O2047       O  0.93081780  0.48603586  0.84594196    -0.54400
C2048       C  0.92114024  0.48729071  0.77760735     0.85600
O2049       O  0.92403820  0.52375722  0.81247573    -0.56300
O2050       O  0.94164059  0.51908213  0.86018951    -0.59600
In2051     In  0.84042044  0.24818277  0.51751916     1.36900
C2052       C  0.82596540  0.23380041  0.97816274     0.78100
O2053       O  0.86178832  0.25299437  0.98661734    -0.60400
O2054       O  0.85625898  0.23869297  0.52266640    -0.51300
C2055       C  0.85457787  0.27827869  0.52626241     0.70700
O2056       O  0.84087286  0.27086720  0.51709012    -0.46200
C2057       C  0.82526648  0.23681577  0.56650283     0.75400
O2058       O  0.83111788  0.24810424  0.97973454    -0.58000
O2059       O  0.81929037  0.23946972  0.54496574    -0.48100
O2060       O  0.83005824  0.22833313  0.99855126    -0.54400
C2061       C  0.86666120  0.24570849  0.00117191     0.85600
O2062       O  0.86086761  0.27038258  0.53030132    -0.56300
O2063       O  0.83901468  0.24005878  0.56312042    -0.59600
In2064     In  0.92651762  0.41333977  0.57943099     1.36900
C2065       C  0.92166388  0.42731854  0.62298019     0.78100
O2066       O  0.94303004  0.41285003  0.61146694    -0.60400
O2067       O  0.95207886  0.42461223  0.57192603    -0.51300
C2068       C  0.90997736  0.38303728  0.57395246     0.70700
O2069       O  0.90386341  0.39121177  0.57646679    -0.46200
C2070       C  0.92212696  0.42456427  0.52998274     0.75400
O2071       O  0.91317045  0.41305835  0.61893462    -0.58000
O2072       O  0.93124077  0.41943255  0.53193670    -0.48100
O2073       O  0.93214931  0.43412323  0.60466519    -0.54400
C2074       C  0.95478153  0.42078561  0.59629109     0.85600
O2075       O  0.92445480  0.39031442  0.57428991    -0.56300
O2076       O  0.91526074  0.42382812  0.55302516    -0.59600
In2077     In  0.08111888  0.58003481  0.94196627     1.36900
C2078       C  0.08547998  0.56335970  0.90343818     0.78100
O2079       O  0.09499149  0.57364338  0.97107462    -0.60400
O2080       O  0.07405434  0.57104393  0.98692705    -0.51300
C2081       C  0.09602246  0.61036544  0.94910274     0.70700
O2082       O  0.10251805  0.60345714  0.93906696    -0.46200
C2083       C  0.05404708  0.57326770  0.92022140     0.75400
O2084       O  0.09360339  0.57784350  0.90390037    -0.58000
O2085       O  0.05574066  0.57007940  0.94583183    -0.48100
O2086       O  0.07543137  0.55756549  0.92284829    -0.54400
C2087       C  0.08554840  0.56944676  0.99149755     0.85600
O2088       O  0.08209244  0.60180878  0.95542088    -0.56300
O2089       O  0.06630160  0.58034135  0.90588734    -0.59600
In2090     In  0.15960666  0.74725716  0.99283615     1.36900
C2091       C  0.18009688  0.76245314  0.53782963     0.78100
O2092       O  0.18101158  0.75650274  0.96602275    -0.60400
O2093       O  0.16163825  0.75653002  0.94775580    -0.51300
C2094       C  0.14533960  0.71696922  0.98357819     0.70700
O2095       O  0.15948032  0.72481761  0.98967128    -0.46200
C2096       C  0.13887937  0.75181911  0.51693192     0.75400
O2097       O  0.17356461  0.74797887  0.53705293    -0.58000
O2098       O  0.14366285  0.75649073  0.98665272    -0.48100
O2099       O  0.17677647  0.76844263  0.51719832    -0.54400
C2100       C  0.17546107  0.75990840  0.94480409     0.85600
O2101       O  0.13852568  0.72452045  0.98247919    -0.56300
O2102       O  0.14426232  0.74505802  0.53163573    -0.59600
In2103     In  0.16741239  0.40840310  0.72551513     1.36900
C2104       C  0.18831645  0.41330061  0.76623050     0.78100
O2105       O  0.15194216  0.38306942  0.71774416    -0.60400
O2106       O  0.15256676  0.39181122  0.75973503    -0.51300
C2107       C  0.15260501  0.42418541  0.72027689     0.70700
O2108       O  0.16674554  0.43055981  0.72638057    -0.46200
C2109       C  0.18162894  0.41283052  0.67493970     0.75400
O2110       O  0.18050084  0.41994846  0.76654266    -0.58000
O2111       O  0.16837699  0.40157759  0.67947626    -0.48100
O2112       O  0.18582000  0.40470604  0.74468267    -0.54400
C2113       C  0.14722573  0.38022138  0.74342287     0.85600
O2114       O  0.14611308  0.40989242  0.71712594    -0.56300
O2115       O  0.18749250  0.42186408  0.69602005    -0.59600
In2116     In  0.08243840  0.49220292  0.69435152     1.36900
C2117       C  0.08789325  0.51353828  0.65503007     0.78100
O2118       O  0.06619709  0.47802695  0.65915782    -0.60400
O2119       O  0.05693576  0.47627025  0.70104505    -0.51300
C2120       C  0.09912811  0.47833296  0.69858498     0.70700
O2121       O  0.08465891  0.47119449  0.69807073    -0.46200
C2122       C  0.08588569  0.50588571  0.74513614     0.75400
O2123       O  0.09458970  0.50577875  0.65458807    -0.58000
O2124       O  0.07537752  0.49221767  0.74065573    -0.48100
O2125       O  0.07876527  0.51056973  0.67574792    -0.54400
C2126       C  0.05442563  0.47211798  0.67490218     0.85600
O2127       O  0.10523362  0.49267495  0.69688147    -0.56300
O2128       O  0.09468416  0.51221168  0.72412412    -0.59600
In2129     In  0.25001462  0.83778626  0.74488067     1.36900
C2130       C  0.23375755  0.81751193  0.78556154     0.78100
O2131       O  0.24933856  0.85246313  0.77996029    -0.60400
O2132       O  0.24112063  0.85395195  0.73819500    -0.51300
C2133       C  0.28053587  0.85231398  0.73614515     0.70700
O2134       O  0.27286835  0.83831699  0.74275434    -0.46200
C2135       C  0.23807985  0.82273040  0.69582255     0.75400
O2136       O  0.24833520  0.82447647  0.78531067    -0.58000
O2137       O  0.24017018  0.83595585  0.70040258    -0.48100
O2138       O  0.22767989  0.82061394  0.76472313    -0.54400
C2139       C  0.24321931  0.85819019  0.76428807     0.85600
O2140       O  0.27275093  0.85889097  0.73507006    -0.56300
O2141       O  0.24239553  0.81738239  0.71599317    -0.59600
In2142     In  0.41701439  0.92085906  0.68208941     1.36900
C2143       C  0.43172185  0.91539523  0.64013078     0.78100
O2144       O  0.41923943  0.93864169  0.65017414    -0.60400
O2145       O  0.42968134  0.94616583  0.69150321    -0.51300
C2146       C  0.38618286  0.90567146  0.68739570     0.70700
O2147       O  0.39365000  0.89903908  0.68186945    -0.46200
C2148       C  0.42702185  0.91601227  0.73253826     0.75400
O2149       O  0.41724634  0.90939076  0.64015492    -0.58000
O2150       O  0.42514948  0.92729173  0.72823153    -0.48100
O2151       O  0.43845266  0.92365508  0.66180438    -0.54400
C2152       C  0.42741381  0.94982317  0.66670437     0.85600
O2153       O  0.39437974  0.92002079  0.68955816    -0.56300
O2154       O  0.42329618  0.90692536  0.71142820    -0.59600
In2155     In  0.58914729  0.83641490  0.99487312     1.36900
C2156       C  0.58355708  0.81522244  0.53878798     0.78100
O2157       O  0.57640461  0.81484113  0.96911133    -0.60400
O2158       O  0.59386346  0.83449230  0.94790371    -0.51300
C2159       C  0.57239951  0.85013165  0.98834844     0.70700
O2160       O  0.56634452  0.83609595  0.99417523    -0.46200
C2161       C  0.61788704  0.85467028  0.51061965     0.75400
O2162       O  0.57679838  0.82294157  0.53795686    -0.58000
O2163       O  0.61434191  0.85168677  0.98520354    -0.48100
O2164       O  0.59264642  0.81766446  0.51824740    -0.54400
C2165       C  0.58382950  0.82045080  0.94633252     0.85600
O2166       O  0.58685961  0.85713307  0.98715197    -0.56300
O2167       O  0.60700579  0.85051818  0.52831026    -0.59600
In2168     In  0.50515130  0.91881319  0.93456391     1.36900
C2169       C  0.48556558  0.91558003  0.89212900     0.78100
O2170       O  0.48368109  0.90790000  0.96136264    -0.60400
O2171       O  0.50391417  0.92608788  0.98023711    -0.51300
C2172       C  0.51768359  0.90094217  0.94229040     0.70700
O2173       O  0.50332417  0.89538435  0.94028920    -0.46200
C2174       C  0.52772572  0.94630829  0.91832336     0.75400
O2175       O  0.49159618  0.90720250  0.89363820    -0.58000
O2176       O  0.52300626  0.94354696  0.94404787    -0.48100
O2177       O  0.48951480  0.92531544  0.91215848    -0.54400
C2178       C  0.48976908  0.91645398  0.98295897     0.85600
O2179       O  0.52533530  0.91524637  0.93969519    -0.56300
O2180       O  0.52116556  0.93497609  0.90138323    -0.59600
In2181     In  0.25212416  0.40351496  0.98019839     1.36900
C2182       C  0.23765901  0.40975323  0.51776600     0.78100
O2183       O  0.24376350  0.41614519  0.95254923    -0.60400
O2184       O  0.24426964  0.39732851  0.93358505    -0.51300
C2185       C  0.28304336  0.42057658  0.97554162     0.70700
O2186       O  0.27465023  0.42644108  0.97849642    -0.46200
C2187       C  0.24411937  0.37555022  0.49977339     0.75400
O2188       O  0.25222978  0.41679571  0.51767727    -0.58000
O2189       O  0.24303228  0.37843608  0.97053804    -0.48100
O2190       O  0.23124311  0.39966230  0.49843178    -0.54400
C2191       C  0.24104807  0.40782263  0.93058688     0.85600
O2192       O  0.27574280  0.40616312  0.97568434    -0.56300
O2193       O  0.24976467  0.38733256  0.51561258    -0.59600
In2194     In  0.42092050  0.49128823  0.93474540     1.36900
C2195       C  0.43720190  0.51099159  0.89379302     0.78100
O2196       O  0.42746467  0.51185651  0.96255969    -0.60400
O2197       O  0.43120046  0.49431760  0.97893583    -0.51300
C2198       C  0.39050000  0.47706840  0.94275046     0.70700
O2199       O  0.39798319  0.49054064  0.93309061    -0.46200
C2200       C  0.42676362  0.46996315  0.91640510     0.75400
O2201       O  0.42263946  0.50387256  0.89366857    -0.58000
O2202       O  0.43011405  0.47533650  0.94172333    -0.48100
O2203       O  0.44330863  0.50826468  0.91508502    -0.54400
C2204       C  0.43240094  0.50722669  0.98294702     0.85600
O2205       O  0.39853626  0.47103345  0.94820414    -0.56300
O2206       O  0.42011032  0.47520665  0.90094017    -0.59600
In2207     In  0.50977640  0.58094147  0.68663793     1.36900
C2208       C  0.48908844  0.56524666  0.64589437     0.78100
O2209       O  0.52505593  0.58081017  0.65207194    -0.60400
O2210       O  0.52527078  0.57107774  0.69274887    -0.51300
C2211       C  0.52414317  0.61122765  0.69454165     0.70700
O2212       O  0.51003287  0.60344423  0.68817373    -0.46200
C2213       C  0.49487846  0.56948367  0.73569975     0.75400
O2214       O  0.49626169  0.57974163  0.64658441    -0.58000
O2215       O  0.50841026  0.57214959  0.73181586    -0.48100
O2216       O  0.49228694  0.55899915  0.66621183    -0.54400
C2217       C  0.53019583  0.57395327  0.66719754     0.85600
O2218       O  0.53086514  0.60360617  0.69635533    -0.56300
O2219       O  0.48922922  0.57312311  0.71497800    -0.59600
In2220     In  0.58744403  0.74686674  0.74670859     1.36900
C2221       C  0.58153391  0.76128090  0.78824099     0.78100
O2222       O  0.60579533  0.74812281  0.77662399    -0.60400
O2223       O  0.61262359  0.76217486  0.73920919    -0.51300
C2224       C  0.57308783  0.71651689  0.74031992     0.70700
O2225       O  0.56596163  0.72357065  0.74535001    -0.46200
C2226       C  0.58216138  0.75576505  0.69597076     0.75400
O2227       O  0.57624776  0.74697343  0.78907866    -0.58000
O2228       O  0.59289356  0.75290874  0.69991405    -0.48100
O2229       O  0.58914230  0.76778198  0.76603659    -0.54400
C2230       C  0.61670537  0.75827608  0.76194084     0.85600
O2231       O  0.58750559  0.72489420  0.73939746    -0.56300
O2232       O  0.57365918  0.75332068  0.71751122    -0.59600
C2233       C  0.53589147  0.65025964  0.70973070     0.20800
C2234       C  0.53394903  0.66279681  0.71568596    -0.39100
C2235       C  0.54736271  0.67642325  0.72347302     0.19800
C2236       C  0.56166709  0.67753907  0.72495705     0.22400
C2237       C  0.56361273  0.66496489  0.71915571    -0.39600
C2238       C  0.55015073  0.65128566  0.71158967     0.21200
N2239       N  0.52486913  0.63596519  0.70252138    -0.32800
C2240       C  0.53213816  0.62779802  0.70008447    -0.10400
C2241       C  0.54791346  0.63694360  0.70546409    -0.29200
N2242       N  0.57264739  0.69190384  0.73192812    -0.45800
C2243       C  0.56523001  0.69992288  0.73498310    -0.05100
C2244       C  0.54945579  0.69065176  0.73006567    -0.22500
H2245       H  0.52280324  0.66199496  0.71439321     0.19400
H2246       H  0.57475834  0.66576314  0.72047687     0.18200
H2247       H  0.55650244  0.63347101  0.70550877     0.14400
H2248       H  0.54078189  0.69400716  0.73032130     0.14300
H2249       H  0.51308734  0.63191497  0.70018999     0.32500
H2250       H  0.58447144  0.69606828  0.73394087     0.35200
C2251       C  0.45030604  0.52270200  0.55269391     0.20800
C2252       C  0.45611931  0.52242714  0.58006556    -0.39100
C2253       C  0.46388637  0.53654472  0.59446254     0.19800
C2254       C  0.46584620  0.54998925  0.58251087     0.22400
C2255       C  0.45992354  0.55024913  0.55510950    -0.39600
C2256       C  0.45203711  0.53605908  0.54073469     0.21200
N2257       N  0.44310228  0.51090209  0.53422200    -0.32800
C2258       C  0.44014321  0.51674678  0.51037439    -0.10400
C2259       C  0.44546809  0.53237926  0.51357409    -0.29200
N2260       N  0.47463218  0.56202786  0.59984952    -0.45800
C2261       C  0.47824502  0.55610669  0.62285010    -0.05100
C2262       C  0.47164075  0.54027173  0.62037418    -0.22500
H2263       H  0.45500090  0.51204343  0.58919958     0.19400
H2264       H  0.46163414  0.56075299  0.54543541     0.18200
H2265       H  0.44503304  0.54007421  0.49782119     0.14400
H2266       H  0.47300028  0.53262950  0.63490823     0.14300
H2267       H  0.44061123  0.49963267  0.53741571     0.32500
H2268       H  0.47841833  0.57356946  0.59579691     0.35200
C2269       C  0.45255855  0.53382305  0.83078521     0.20800
C2270       C  0.45223325  0.53993950  0.80381531    -0.39100
C2271       C  0.46659023  0.54887378  0.79070729     0.19800
C2272       C  0.48021821  0.55139593  0.80334072     0.22400
C2273       C  0.48055200  0.54533878  0.83037476    -0.39600
C2274       C  0.46620629  0.53650702  0.84358528     0.21200
N2275       N  0.44044205  0.52456823  0.84725508    -0.32800
C2276       C  0.44646199  0.52140712  0.87069796    -0.10400
C2277       C  0.46247269  0.52865467  0.86925149    -0.29200
N2278       N  0.49217866  0.55950473  0.78570936    -0.45800
C2279       C  0.48608854  0.56218232  0.76178686    -0.05100
C2280       C  0.47020460  0.55584869  0.76415332    -0.22500
H2281       H  0.44157318  0.53770028  0.79358127     0.19400
H2282       H  0.49115692  0.54713969  0.84016200     0.18200
H2283       H  0.47027458  0.52796127  0.88458891     0.14400
H2284       H  0.46229760  0.55576310  0.74806350     0.14300
H2285       H  0.42880649  0.52045330  0.84263330     0.32500
H2286       H  0.50367546  0.56264655  0.78935502     0.35200
C2287       C  0.32258181  0.44822480  0.96094238     0.20800
C2288       C  0.33522181  0.46239561  0.95260082    -0.39100
C2289       C  0.34950222  0.46298825  0.95125458     0.19800
C2290       C  0.35100225  0.45040735  0.95772964     0.22400
C2291       C  0.33838393  0.43624138  0.96569782    -0.39600
C2292       C  0.32415480  0.43565003  0.96701529     0.21200
N2293       N  0.30779535  0.44463058  0.96393799    -0.32800
C2294       C  0.29991584  0.42962665  0.97167999    -0.10400
C2295       C  0.30974526  0.42365707  0.97378621    -0.29200
N2296       N  0.36573462  0.45390863  0.95544011    -0.45800
C2297       C  0.37374371  0.46881124  0.94734497    -0.05100
C2298       C  0.36403315  0.47490499  0.94440461    -0.22500
H2299       H  0.33404097  0.47223916  0.94766997     0.19400
H2300       H  0.33957337  0.42640062  0.97062023     0.18200
H2301       H  0.30671508  0.41204919  0.97928711     0.14400
H2302       H  0.36719993  0.48648650  0.93838931     0.14300
H2303       H  0.30328169  0.45182258  0.96034082     0.32500
H2304       H  0.37009718  0.44660265  0.95922327     0.35200
C2305       C  0.58366772  0.80444702  0.87777569     0.20800
C2306       C  0.58818804  0.80441841  0.84928776    -0.39100
C2307       C  0.58339498  0.78993343  0.83735654     0.19800
C2308       C  0.57482101  0.77644857  0.85258040     0.22400
C2309       C  0.57023437  0.77647132  0.88109960    -0.32400
C2310       C  0.57494287  0.79098358  0.89299114     0.21200
N2311       N  0.58756769  0.81675695  0.89452480    -0.32800
C2312       C  0.58124586  0.81105459  0.92054515    -0.10400
C2313       C  0.57317610  0.79506286  0.92039194    -0.29200
N2314       N  0.57251527  0.76426586  0.83676976    -0.45800
C2315       C  0.57969805  0.77014132  0.81138147    -0.05100
C2316       C  0.58652718  0.78605409  0.81093893    -0.22500
H2317       H  0.59524158  0.81491733  0.83750326     0.19400
H2318       H  0.56379401  0.76601115  0.89334238     0.18200
H2319       H  0.56745753  0.78747988  0.93834757     0.14400
H2320       H  0.59340518  0.79379894  0.79394670     0.14300
H2321       H  0.59448485  0.82828170  0.88890750     0.32500
H2322       H  0.56686643  0.75278536  0.84314664     0.35200
C2323       C  0.58514831  0.78879433  0.58781729     0.20800
C2324       C  0.59108907  0.78000067  0.59954707    -0.39100
C2325       C  0.58510387  0.77325623  0.62632934     0.19800
C2326       C  0.57396522  0.77505220  0.64027659     0.22400
C2327       C  0.56809135  0.78394560  0.62861011    -0.39600
C2328       C  0.57415013  0.79077712  0.60185922     0.21200
N2329       N  0.58951662  0.79695043  0.56334334    -0.32800
C2330       C  0.58138510  0.80432020  0.56184398    -0.10400
C2331       C  0.57160075  0.80071979  0.58541082    -0.29200
N2332       N  0.57085830  0.76823380  0.66622374    -0.45800
C2333       C  0.58023110  0.76225033  0.66895245    -0.05100
C2334       C  0.58922339  0.76506195  0.64444002    -0.22500
H2335       H  0.60002704  0.77884818  0.58896127     0.19400
H2336       H  0.55973112  0.78574470  0.63989268     0.18200
H2337       H  0.56399748  0.80510053  0.59023038     0.14400
H2338       H  0.59814049  0.76221377  0.64100236     0.14300
H2339       H  0.59785965  0.79780042  0.54892206     0.32500
H2340       H  0.56344160  0.76836425  0.68176270     0.35200
C2341       C  0.54469020  0.86160540  0.97249589     0.20800
C2342       C  0.53009312  0.86000352  0.96740467    -0.39100
C2343       C  0.53013770  0.87347233  0.95918006     0.19800
C2344       C  0.54371322  0.88733842  0.95617140     0.22400
C2345       C  0.55820586  0.88890241  0.96106827    -0.39600
C2346       C  0.55814955  0.87555883  0.96939629     0.21200
N2347       N  0.54792280  0.85067735  0.98049624    -0.32800
C2348       C  0.56353465  0.85783052  0.98238136    -0.10400
C2349       C  0.57026391  0.87332705  0.97566672    -0.29200
N2350       N  0.54082669  0.89853419  0.94914926    -0.45800
C2351       C  0.52529913  0.89192501  0.94769252    -0.05100
C2352       C  0.51815334  0.87622836  0.95367333    -0.22500
H2353       H  0.51951721  0.84914799  0.96993122     0.19400
H2354       H  0.56878141  0.89978873  0.95882231     0.18200
H2355       H  0.58242931  0.88177008  0.97491641     0.14400
H2356       H  0.50591817  0.86808007  0.95466777     0.14300
H2357       H  0.54005889  0.83906479  0.98391925     0.32500
H2358       H  0.54896767  0.91010611  0.94616102     0.35200
C2359       C  0.45959946  0.91744904  0.59026400     0.20800
C2360       C  0.47442239  0.92319556  0.57898037    -0.39100
C2361       C  0.47506806  0.91807741  0.55122087     0.19800
C2362       C  0.46193771  0.90791294  0.53593887     0.22400
C2363       C  0.44708351  0.90219719  0.54718760    -0.39600
C2364       C  0.44643173  0.90739644  0.57494950     0.21200
N2365       N  0.45593607  0.92112764  0.61563326    -0.32800
C2366       C  0.44033361  0.91347246  0.61652776    -0.10400
C2367       C  0.43395008  0.90472767  0.59155535    -0.29200
N2368       N  0.46529363  0.90681545  0.01012331    -0.45800
C2369       C  0.48121375  0.91388608  0.50813979    -0.05100
C2370       C  0.48752276  0.92203415  0.53364636    -0.22500
H2371       H  0.48468586  0.93131647  0.59072480     0.19400
H2372       H  0.43680062  0.89452592  0.53499591     0.18200
H2373       H  0.42186149  0.89775397  0.58596453     0.14400
H2374       H  0.49953896  0.93003791  0.53839597     0.14300
H2375       H  0.46359261  0.92875978  0.63106065     0.32500
H2376       H  0.45776442  0.89987991  0.99382307     0.35200
C2377       C  0.46076381  0.90731626  0.83043367     0.20800
C2378       C  0.45318983  0.90005414  0.80457878    -0.39100
C2379       C  0.44536041  0.90645969  0.79032120     0.19800
C2380       C  0.44511113  0.91914755  0.80098524     0.22400
C2381       C  0.45256057  0.92632220  0.82693574    -0.39600
C2382       C  0.46036189  0.91990911  0.84117601     0.21200
N2383       N  0.46964981  0.90395210  0.84729428    -0.32800
C2384       C  0.47490011  0.91447978  0.86893051    -0.10400
C2385       C  0.46929172  0.92455762  0.86588226    -0.29200
N2386       N  0.43792848  0.92374733  0.78234417    -0.45800
C2387       C  0.43361035  0.91396279  0.75957048    -0.05100
C2388       C  0.43790101  0.90292607  0.76389611    -0.22500
H2389       H  0.45372215  0.89040082  0.79577332     0.19400
H2390       H  0.45264949  0.93642756  0.83503336     0.18200
H2391       H  0.47175753  0.93424438  0.87954246     0.14400
H2392       H  0.43652107  0.89405886  0.74898570     0.14300
H2393       H  0.47219035  0.89522520  0.84403833     0.32500
H2394       H  0.43664195  0.93335067  0.78440488     0.35200
C2395       C  0.31965159  0.87847597  0.71676985     0.20800
C2396       C  0.33245968  0.89269721  0.70946265    -0.39100
C2397       C  0.34590435  0.89245802  0.70233701     0.19800
C2398       C  0.34649718  0.87904706  0.70221416     0.22400
C2399       C  0.33369051  0.86482879  0.70962828    -0.39600
C2400       C  0.32027966  0.86508672  0.71702364     0.21200
N2401       N  0.30553854  0.87564670  0.72417974    -0.32800
C2402       C  0.29710487  0.86035778  0.72931184    -0.10400
C2403       C  0.30591846  0.85337529  0.72518602    -0.29200
N2404       N  0.36075078  0.88196223  0.69560657    -0.45800
C2405       C  0.36936156  0.89736235  0.69190984    -0.05100
C2406       C  0.36047167  0.90429067  0.69574405    -0.22500
H2407       H  0.33203635  0.90320443  0.70962409     0.19400
H2408       H  0.33417963  0.85435791  0.70989981     0.18200
H2409       H  0.30220874  0.84131928  0.72719094     0.14400
H2410       H  0.36429082  0.91640724  0.69483346     0.14300
H2411       H  0.30180373  0.88359505  0.72531577     0.32500
H2412       H  0.36454921  0.87404881  0.69481849     0.35200
C2413       C  0.22610500  0.40793885  0.86023223     0.20800
C2414       C  0.22197040  0.40357924  0.83129479    -0.39100
C2415       C  0.21365947  0.40962053  0.81764576     0.19800
C2416       C  0.20970624  0.41923350  0.83173620     0.22400
C2417       C  0.21395469  0.42369650  0.86060081    -0.39600
C2418       C  0.22233592  0.41772232  0.87419563     0.21200
N2419       N  0.23338990  0.40320822  0.87838051    -0.32800
C2420       C  0.23436238  0.41014259  0.90399885    -0.10400
C2421       C  0.22765902  0.41932197  0.90218804    -0.29200
N2422       N  0.20077954  0.42244004  0.81471238    -0.45800
C2423       C  0.19898339  0.41474971  0.78965684    -0.05100
C2424       C  0.20697582  0.40676365  0.79059013    -0.22500
H2425       H  0.22466069  0.39573111  0.82042985     0.19400
H2426       H  0.21065177  0.43097985  0.87187419     0.18200
H2427       H  0.22646086  0.42593036  0.91931342     0.14400
H2428       H  0.20713432  0.39917842  0.77426175     0.14300
H2429       H  0.23729525  0.39561412  0.87374517     0.32500
H2430       H  0.19562851  0.42884421  0.82028035     0.35200
C2431       C  0.19515352  0.41047570  0.60520786     0.20800
C2432       C  0.19469730  0.40356712  0.57869911    -0.39100
C2433       C  0.20890305  0.40919429  0.56490070     0.19800
C2434       C  0.22256325  0.42084143  0.57652274     0.22400
C2435       C  0.22297900  0.42794129  0.60281032    -0.39600
C2436       C  0.20875690  0.42229526  0.61666239     0.21200
N2437       N  0.18355453  0.40602482  0.62402278    -0.32800
C2438       C  0.18983257  0.41504947  0.64762753    -0.10400
C2439       C  0.20545938  0.42548143  0.64369981    -0.29200
N2440       N  0.23465808  0.42299654  0.56065504    -0.45800
C2441       C  0.22858357  0.41260114  0.53890547    -0.05100
C2442       C  0.21258168  0.40392955  0.54064141    -0.22500
H2443       H  0.18418391  0.39399221  0.57014983     0.19400
H2444       H  0.23367906  0.43668260  0.61246622     0.18200
H2445       H  0.21352938  0.43356082  0.65931348     0.14400
H2446       H  0.20478066  0.39444653  0.52691727     0.14300
H2447       H  0.17226697  0.39691368  0.62154952     0.32500
H2448       H  0.24631596  0.43056095  0.56503851     0.35200
C2449       C  0.11289278  0.45200161  0.70407963     0.20800
C2450       C  0.11171741  0.43756015  0.70517141    -0.39100
C2451       C  0.12556413  0.43767002  0.70999381     0.19800
C2452       C  0.13952450  0.45113268  0.71360694     0.22400
C2453       C  0.14070816  0.46560669  0.71236770    -0.39600
C2454       C  0.12684587  0.46550572  0.70738875     0.21200
N2455       N  0.10136504  0.45493088  0.70026524    -0.32800
C2456       C  0.10798246  0.47040335  0.70107179    -0.10400
C2457       C  0.12388588  0.47743947  0.70533617    -0.29200
N2458       N  0.15097434  0.44809017  0.71799240    -0.45800
C2459       C  0.14423657  0.43259335  0.71699216    -0.05100
C2460       C  0.12840949  0.42570369  0.71204266    -0.22500
H2461       H  0.10081023  0.42700866  0.70252582     0.19400
H2462       H  0.15160214  0.47615547  0.71514001     0.18200
H2463       H  0.13209629  0.48959201  0.70719641     0.14400
H2464       H  0.12012014  0.41357192  0.71013089     0.14300
H2465       H  0.08967484  0.44688788  0.69751034     0.32500
H2466       H  0.16265053  0.45604526  0.72123172     0.35200
C2467       C  0.21814797  0.79454240  0.84870840     0.20800
C2468       C  0.21837964  0.78846093  0.87584789    -0.39100
C2469       C  0.20406496  0.78019256  0.88957904     0.19800
C2470       C  0.19056853  0.77818671  0.87725153     0.22400
C2471       C  0.19032802  0.78422212  0.85011738    -0.39600
C2472       C  0.20461820  0.79244277  0.83637162     0.21200
N2473       N  0.23027865  0.80340523  0.83183437    -0.32800
C2474       C  0.22440370  0.80696608  0.80864351    -0.10400
C2475       C  0.20844279  0.80028493  0.81064810    -0.29200
N2476       N  0.17861555  0.77045869  0.89512054    -0.45800
C2477       C  0.18452572  0.76749907  0.91898331    -0.05100
C2478       C  0.20034948  0.77333152  0.91632798    -0.22500
H2479       H  0.22895804  0.79026772  0.88576656     0.19400
H2480       H  0.17982827  0.78286131  0.84064085     0.18200
H2481       H  0.20075220  0.80145735  0.79575461     0.14400
H2482       H  0.20813549  0.77297749  0.93216393     0.14300
H2483       H  0.24186807  0.80713891  0.83617325     0.32500
H2484       H  0.16719687  0.76761847  0.89154447     0.35200
C2485       C  0.20433041  0.79133272  0.58830123     0.20800
C2486       C  0.21199200  0.80605042  0.60057805    -0.39100
C2487       C  0.21919119  0.80729514  0.62722518     0.19800
C2488       C  0.21884297  0.79483733  0.64054198     0.22400
C2489       C  0.21111122  0.78009030  0.62831344    -0.39600
C2490       C  0.20385293  0.77883158  0.60169048     0.21200
N2491       N  0.19619750  0.78707484  0.56358764    -0.32800
C2492       C  0.19045701  0.77175933  0.56126565    -0.10400
C2493       C  0.19495201  0.76616320  0.58459500    -0.29200
N2494       N  0.22602355  0.79891728  0.66627280    -0.45800
C2495       C  0.23081102  0.81401681  0.66942782    -0.05100
C2496       C  0.22684025  0.81968649  0.64550306    -0.22500
H2497       H  0.21208591  0.81575030  0.59039452     0.19400
H2498       H  0.21055184  0.77028275  0.63898589     0.18200
H2499       H  0.19186924  0.75440431  0.58874354     0.14400
H2500       H  0.22884350  0.83117694  0.64235051     0.14300
H2501       H  0.19437276  0.79408878  0.54948906     0.32500
H2502       H  0.22711107  0.79176224  0.68121730     0.35200
C2503       C  0.09546954  0.55267148  0.55311494     0.20800
C2504       C  0.10292381  0.54559787  0.56632033    -0.39100
C2505       C  0.09699654  0.53866787  0.59308760     0.19800
C2506       C  0.08475358  0.53901637  0.60585511     0.22400
C2507       C  0.07733481  0.54609434  0.59269612    -0.39600
C2508       C  0.08309249  0.55279695  0.56579056     0.21200
N2509       N  0.09801000  0.55887180  0.52661812    -0.32800
C2510       C  0.08703972  0.56275466  0.52230030    -0.10400
C2511       C  0.07758989  0.55924496  0.54631358    -0.29200
N2512       N  0.08053710  0.53070017  0.63015555    -0.45800
C2513       C  0.08996079  0.52478394  0.63274927    -0.05100
C2514       C  0.10048873  0.52957864  0.61015914    -0.22500
H2515       H  0.11220623  0.54496055  0.55594432     0.19400
H2516       H  0.06737696  0.54581981  0.60215348     0.18200
H2517       H  0.06764637  0.56062963  0.54869770     0.14400
H2518       H  0.10901029  0.52626517  0.60605442     0.14300
H2519       H  0.10624119  0.55976950  0.51187375     0.32500
H2520       H  0.07127058  0.52851377  0.64337465     0.35200
C2521       C  0.09415631  0.54738192  0.84295645     0.20800
C2522       C  0.10079683  0.54756180  0.81640437    -0.39100
C2523       C  0.09476062  0.53333460  0.80253113     0.19800
C2524       C  0.08295827  0.51990535  0.81408961     0.22400
C2525       C  0.07636140  0.51970370  0.84079299    -0.39600
C2526       C  0.08243178  0.53396324  0.85472076     0.21200
N2527       N  0.09713608  0.55955450  0.85935277    -0.32800
C2528       C  0.08719122  0.55383936  0.88162923    -0.10400
C2529       C  0.07791856  0.53793305  0.87966070    -0.29200
N2530       N  0.07854616  0.50813275  0.79555483    -0.45800
C2531       C  0.08763458  0.51420402  0.77213395    -0.05100
C2532       C  0.09793868  0.52982451  0.77578709    -0.22500
H2533       H  0.10967616  0.55808212  0.80680888     0.19400
H2534       H  0.06688236  0.50932189  0.84961783     0.18200
H2535       H  0.06865959  0.53040176  0.89385732     0.14400
H2536       H  0.10613262  0.53769970  0.76032322     0.14300
H2537       H  0.10501332  0.57107226  0.85508287     0.32500
H2538       H  0.06957450  0.49685047  0.79819731     0.35200
C2539       C  0.10756004  0.64946422  0.96339521     0.20800
C2540       C  0.10565644  0.66187273  0.97101572    -0.39100
C2541       C  0.11923376  0.67621357  0.97254460     0.19800
C2542       C  0.13359700  0.67799576  0.96722793     0.22400
C2543       C  0.13546399  0.66561577  0.95928946    -0.39600
C2544       C  0.12189135  0.65130947  0.95749623     0.21200
N2545       N  0.09654343  0.63465035  0.96097098    -0.32800
C2546       C  0.10391215  0.62704816  0.95331487    -0.10400
C2547       C  0.11971847  0.63703804  0.95079539    -0.29200
N2548       N  0.14472444  0.69270383  0.97076765    -0.45800
C2549       C  0.13738978  0.70037154  0.97805890    -0.05100
C2550       C  0.12147549  0.69051183  0.97926157    -0.22500
H2551       H  0.09445345  0.66045511  0.97553606     0.19400
H2552       H  0.14667521  0.66700813  0.95499307     0.18200
H2553       H  0.12844527  0.63419810  0.94531713     0.14400
H2554       H  0.11276877  0.69340346  0.98461192     0.14300
H2555       H  0.08475193  0.62997869  0.96444013     0.32500
H2556       H  0.15656163  0.69728177  0.96811580     0.35200
C2557       C  0.98915843  0.43222264  0.63702445     0.20800
C2558       C  0.99809752  0.43594244  0.66239553    -0.39100
C2559       C  0.01405006  0.44547781  0.65885715     0.19800
C2560       C  0.02056883  0.45062127  0.63199100     0.22400
C2561       C  0.01164468  0.44693217  0.60668106    -0.39600
C2562       C  0.99569842  0.43765228  0.61027447     0.21200
N2563       N  0.97370800  0.42471676  0.63498363    -0.32800
C2564       C  0.97040895  0.42565190  0.60689505    -0.10400
C2565       C  0.98381629  0.43349820  0.59073290    -0.29200
N2566       N  0.03580298  0.46027185  0.63446707    -0.45800
C2567       C  0.03902196  0.46153124  0.66309436    -0.05100
C2568       C  0.02577047  0.45242065  0.67909015    -0.22500
H2569       H  0.99294710  0.43227142  0.68345613     0.19400
H2570       H  0.01669857  0.45154103  0.58588838     0.18200
H2571       H  0.98475109  0.43654940  0.56814817     0.14400
H2572       H  0.02476802  0.45144597  0.70232958     0.14300
H2573       H  0.96590516  0.42010802  0.65196520     0.32500
H2574       H  0.04344691  0.46621367  0.61778186     0.35200
C2575       C  0.88239176  0.34416287  0.55801058     0.20800
C2576       C  0.86832198  0.33198935  0.54785641    -0.39100
C2577       C  0.86809795  0.31819838  0.54259792     0.19800
C2578       C  0.88090661  0.31670192  0.54732435     0.22400
C2579       C  0.89494944  0.32884126  0.55745037    -0.39600
C2580       C  0.89520002  0.34262837  0.56247260     0.21200
N2581       N  0.88585927  0.35866099  0.56300017    -0.32800
C2582       C  0.90101631  0.36639624  0.57016119    -0.10400
C2583       C  0.90722230  0.35678372  0.57039065    -0.29200
N2584       N  0.87771846  0.30243086  0.54119698    -0.45800
C2585       C  0.86277577  0.29473475  0.53259855    -0.05100
C2586       C  0.85635362  0.30417660  0.53294527    -0.22500
H2587       H  0.85836221  0.33322467  0.54400733     0.19400
H2588       H  0.90499702  0.32768863  0.56077140     0.18200
H2589       H  0.91907227  0.35989140  0.57449772     0.14400
H2590       H  0.84461901  0.30108813  0.52770110     0.14300
H2591       H  0.87859199  0.36318188  0.56029709     0.32500
H2592       H  0.88517168  0.29809011  0.54330703     0.35200
C2593       C  0.91262529  0.45866749  0.72389826     0.20800
C2594       C  0.90574895  0.44382747  0.71178872    -0.39100
C2595       C  0.91252816  0.44251405  0.68626595     0.19800
C2596       C  0.92514420  0.45505781  0.67412251     0.22400
C2597       C  0.93196220  0.46973878  0.68616534    -0.39600
C2598       C  0.92523107  0.47104756  0.71138727     0.21200
N2599       N  0.90898938  0.46299195  0.74870992    -0.32800
C2600       C  0.91947519  0.47815506  0.75180718    -0.10400
C2601       C  0.92969301  0.48356153  0.72889769    -0.29200
N2602       N  0.92970814  0.45102359  0.65037329    -0.45800
C2603       C  0.92000063  0.43580097  0.64698569    -0.05100
C2604       C  0.90906079  0.42995174  0.66897578    -0.22500
H2605       H  0.89602656  0.43405262  0.72166034     0.19400
H2606       H  0.94196090  0.47942847  0.67674686     0.18200
H2607       H  0.93949898  0.49497189  0.72609255     0.14400
H2608       H  0.89994989  0.41819760  0.67195846     0.14300
H2609       H  0.90038139  0.45597268  0.76319814     0.32500
H2610       H  0.93898990  0.45824017  0.63724724     0.35200
C2611       C  0.92478708  0.45766277  0.91647957     0.20800
C2612       C  0.93118006  0.44937522  0.92886478    -0.39100
C2613       C  0.92540552  0.44292444  0.95602125     0.19800
C2614       C  0.91408427  0.44457100  0.96961051     0.22400
C2615       C  0.90766994  0.45278181  0.95718330    -0.39600
C2616       C  0.91348696  0.45928522  0.93019016     0.21200
N2617       N  0.92891679  0.46566115  0.89173714    -0.32800
C2618       C  0.92021685  0.47244237  0.88982997    -0.10400
C2619       C  0.91043076  0.46870610  0.91335237    -0.29200
N2620       N  0.91054162  0.43734339  0.50166911    -0.45800
C2621       C  0.91980469  0.43117496  0.50331007    -0.05100
C2622       C  0.93003317  0.43545582  0.97505743    -0.22500
H2623       H  0.94033923  0.44847583  0.91859363     0.19400
H2624       H  0.89915460  0.45444392  0.96820665     0.18200
H2625       H  0.90250626  0.47272713  0.91794125     0.14400
H2626       H  0.93915864  0.43286104  0.97208305     0.14300
H2627       H  0.93743232  0.46680484  0.87746490     0.32500
H2628       H  0.90380579  0.43794606  0.51811419     0.35200
C2629       C  0.99382541  0.54756576  0.85926336     0.20800
C2630       C  0.00962784  0.55544699  0.85296527    -0.39100
C2631       C  0.01960428  0.56058133  0.87694042     0.19800
C2632       C  0.01420563  0.55787512  0.90498595     0.22400
C2633       C  0.99844146  0.55011035  0.91126287    -0.39600
C2634       C  0.98848834  0.54515889  0.88733663     0.21200
N2635       N  0.98200667  0.54070212  0.84045580    -0.32800
C2636       C  0.96909803  0.53400152  0.85671756    -0.10400
C2637       C  0.97265749  0.53660603  0.88602844    -0.29200
N2638       N  0.02590219  0.56270316  0.92393127    -0.45800
C2639       C  0.03884004  0.56854859  0.90789708    -0.05100
C2640       C  0.03544586  0.56761491  0.87848012    -0.22500
H2641       H  0.01383291  0.55707449  0.83106703     0.19400
H2642       H  0.99423501  0.54772229  0.93317817     0.18200
H2643       H  0.96477174  0.53214175  0.90397435     0.14400
H2644       H  0.04338863  0.57075301  0.86068297     0.14300
H2645       H  0.98268973  0.54018293  0.81804266     0.32500
H2646       H  0.02509539  0.56152030  0.94634617     0.35200
C2647       C  0.88202525  0.55685925  0.79516124     0.20800
C2648       C  0.89649122  0.55827181  0.79989047    -0.39100
C2649       C  0.89638194  0.54453015  0.80503286     0.19800
C2650       C  0.88287661  0.53046036  0.80580836     0.22400
C2651       C  0.86838991  0.52903679  0.80082492    -0.39600
C2652       C  0.86851026  0.54278502  0.79532106     0.21200
N2653       N  0.87906109  0.56823557  0.79029557    -0.32800
C2654       C  0.86356669  0.56139155  0.78714992    -0.10400
C2655       C  0.85655244  0.54550256  0.78994289    -0.29200
N2656       N  0.88592477  0.51914408  0.81117025    -0.45800
C2657       C  0.90148340  0.52606293  0.81338357    -0.05100
C2658       C  0.90840010  0.54188145  0.80969533    -0.22500
H2659       H  0.90706093  0.56926624  0.79953005     0.19400
H2660       H  0.85781921  0.51804585  0.80117667     0.18200
H2661       H  0.84436033  0.53714900  0.78895772     0.14400
H2662       H  0.92058657  0.55028524  0.81019506     0.14300
H2663       H  0.88707399  0.57996604  0.78943467     0.32500
H2664       H  0.87796298  0.50741910  0.81259109     0.35200
C2665       C  0.78016903  0.57281524  0.63570455     0.20800
C2666       C  0.78701911  0.56544716  0.64989345    -0.39100
C2667       C  0.79451165  0.57212443  0.67602733     0.19800
C2668       C  0.79508455  0.58512215  0.68724397     0.22400
C2669       C  0.78830311  0.59254740  0.67298232    -0.39600
C2670       C  0.78085140  0.58589336  0.64676972     0.21200
N2671       N  0.77314480  0.56923049  0.60977685    -0.32800
C2672       C  0.76947056  0.58018381  0.60414468    -0.10400
C2673       C  0.77400082  0.59073295  0.62677017    -0.29200
N2674       N  0.80361265  0.58967425  0.71154561    -0.45800
C2675       C  0.80862379  0.57959843  0.71560395    -0.05100
C2676       C  0.80312539  0.56843557  0.69402260    -0.22500
H2677       H  0.78688918  0.55549349  0.64085185     0.19400
H2678       H  0.78913189  0.60296543  0.68128414     0.18200
H2679       H  0.77296565  0.60088949  0.62789934     0.14400
H2680       H  0.80565007  0.55928028  0.69120719     0.14300
H2681       H  0.77150162  0.56024438  0.59623508     0.32500
H2682       H  0.80641880  0.59941281  0.72388781     0.35200
C2683       C  0.81228838  0.58568654  0.89492438     0.20800
C2684       C  0.81182442  0.59280799  0.92057632    -0.39100
C2685       C  0.79786799  0.58533385  0.93560676     0.19800
C2686       C  0.78529355  0.57179460  0.92588055     0.22400
C2687       C  0.78580511  0.56459620  0.90033991    -0.39600
C2688       C  0.79977037  0.57208076  0.88528616     0.21200
N2689       N  0.82382461  0.59102801  0.87574111    -0.32800
C2690       C  0.81858639  0.58075393  0.85373075    -0.10400
C2691       C  0.80368529  0.56874002  0.85897362    -0.29200
N2692       N  0.77301803  0.56767461  0.94288932    -0.45800
C2693       C  0.77785547  0.57870459  0.96350576    -0.05100
C2694       C  0.79329876  0.58981493  0.95982204    -0.22500
H2695       H  0.82144214  0.60363903  0.92780335     0.19400
H2696       H  0.77589863  0.55421911  0.89226786     0.18200
H2697       H  0.79646437  0.55919282  0.84485787     0.14400
H2698       H  0.80003578  0.60019612  0.97233094     0.14300
H2699       H  0.83438968  0.60125730  0.87708746     0.32500
H2700       H  0.76191686  0.55829171  0.94003619     0.35200
C2701       C  0.68155317  0.54140567  0.54171341     0.20800
C2702       C  0.66827043  0.52714257  0.54681759    -0.39100
C2703       C  0.65460431  0.52750173  0.55094251     0.19800
C2704       C  0.65421382  0.54101387  0.54972679     0.22400
C2705       C  0.66747032  0.55524170  0.54482352    -0.39600
C2706       C  0.68111976  0.55490239  0.54107590     0.21200
N2707       N  0.69603363  0.54427099  0.53772322    -0.32800
C2708       C  0.70482664  0.55971477  0.53497088    -0.10400
C2709       C  0.69594321  0.56671333  0.53693961    -0.29200
N2710       N  0.63987639  0.53833934  0.55417636    -0.45800
C2711       C  0.63105153  0.52303347  0.55851195    -0.05100
C2712       C  0.63980505  0.51585261  0.55669832    -0.22500
H2713       H  0.66857436  0.51658151  0.54775453     0.19400
H2714       H  0.66459289  0.56338809  0.02864419     0.18200
H2715       H  0.69716421  0.57632289  0.02143152     0.14400
H2716       H  0.63584869  0.50375785  0.55904656     0.14300
H2717       H  0.69976165  0.53630107  0.53759016     0.32500
H2718       H  0.63631098  0.54644124  0.55434871     0.35200
C2719       C  0.55434265  0.55836699  0.65228425     0.20800
C2720       C  0.56234020  0.55059342  0.65832882    -0.39100
C2721       C  0.56621989  0.54482410  0.63426330     0.19800
C2722       C  0.56230231  0.54655266  0.60636966     0.22400
C2723       C  0.55448560  0.55447071  0.60031753    -0.39600
C2724       C  0.55075607  0.56036847  0.62430639     0.21200
N2725       N  0.54808076  0.56365108  0.67136732    -0.32800
C2726       C  0.54053367  0.56907048  0.65531420    -0.10400
C2727       C  0.54211910  0.56742557  0.62592470    -0.29200
N2728       N  0.56619386  0.53900864  0.58749624    -0.45800
C2729       C  0.57271346  0.53250423  0.60345632    -0.05100
C2730       C  0.57303492  0.53593403  0.63268847    -0.22500
H2731       H  0.56487140  0.54870627  0.68017916     0.19400
H2732       H  0.55108767  0.55550886  0.57860145     0.18200
H2733       H  0.53671443  0.57000712  0.60822431     0.14400
H2734       H  0.57703065  0.53185499  0.65047171     0.14300
H2735       H  0.54830877  0.56296268  0.69383817     0.32500
H2736       H  0.56410888  0.53794677  0.56526484     0.35200
C2737       C  0.52415173  0.44137821  0.70204934     0.20800
C2738       C  0.52394608  0.44765929  0.67517781    -0.39100
C2739       C  0.53811474  0.45535114  0.66091398     0.19800
C2740       C  0.55150229  0.45673397  0.67252814     0.22400
C2741       C  0.55168570  0.45035476  0.69934516    -0.39600
C2742       C  0.53749056  0.44262234  0.71360327     0.21200
N2743       N  0.51236730  0.43420981  0.72047433    -0.32800
C2744       C  0.51822700  0.43083106  0.74389654    -0.10400
C2745       C  0.53384207  0.43583582  0.74040699    -0.29200
N2746       N  0.56363262  0.46549541  0.65560976    -0.45800
C2747       C  0.55788966  0.46971478  0.63315734    -0.05100
C2748       C  0.54201709  0.46351514  0.63557654    -0.22500
H2749       H  0.51360044  0.44696067  0.66637225     0.19400
H2750       H  0.56217640  0.45166029  0.70875351     0.18200
H2751       H  0.54157452  0.43505821  0.75579406     0.14400
H2752       H  0.53448716  0.46535117  0.62140728     0.14300
H2753       H  0.50112338  0.43205304  0.71758185     0.32500
H2754       H  0.57516110  0.46884792  0.65959358     0.35200
C2755       C  0.53787712  0.45709580  0.91190429     0.20800
C2756       C  0.54523135  0.47164138  0.92495173    -0.39100
C2757       C  0.55253162  0.47271037  0.95144005     0.19800
C2758       C  0.55253147  0.46024923  0.96396147     0.22400
C2759       C  0.54516508  0.44569053  0.95089467    -0.39600
C2760       C  0.53783605  0.44461101  0.92440380     0.21200
N2761       N  0.52959652  0.45295783  0.88731821    -0.32800
C2762       C  0.52419950  0.43772723  0.88418960    -0.10400
C2763       C  0.52911346  0.43209585  0.90682218    -0.29200
N2764       N  0.56088754  0.46380512  0.49046992    -0.45800
C2765       C  0.56404162  0.47907086  0.99385806    -0.05100
C2766       C  0.55991876  0.48487016  0.97032353    -0.22500
H2767       H  0.54499681  0.48132904  0.91548662     0.19400
H2768       H  0.54487648  0.43586036  0.96091016     0.18200
H2769       H  0.52635074  0.42037721  0.91029604     0.14400
H2770       H  0.56160524  0.49628169  0.96785769     0.14300
H2771       H  0.52742729  0.45997319  0.87387010     0.32500
H2772       H  0.56193945  0.45645564  0.50498247     0.35200
C2773       C  0.45114105  0.42985959  0.87991655     0.20800
C2774       C  0.44687502  0.43427713  0.90535476    -0.39100
C2775       C  0.43992754  0.44323259  0.90154780     0.19800
C2776       C  0.43725527  0.44725186  0.87444707     0.22400
C2777       C  0.44163374  0.44296039  0.84910961    -0.39600
C2778       C  0.44873097  0.43419458  0.85291654     0.21200
N2779       N  0.45920082  0.42258713  0.87773826    -0.32800
C2780       C  0.46214284  0.42258308  0.84923966    -0.10400
C2781       C  0.45570993  0.42960290  0.83306470    -0.29200
N2782       N  0.43148804  0.45663451  0.87654647    -0.45800
C2783       C  0.43075628  0.45887440  0.90513244    -0.05100
C2784       C  0.43582093  0.45064757  0.92151429    -0.22500
H2785       H  0.44938023  0.43151094  0.92652959     0.19400
H2786       H  0.44020990  0.44672805  0.82803655     0.18200
H2787       H  0.45682577  0.43188694  0.81012520     0.14400
H2788       H  0.43701410  0.45067556  0.94474533     0.14300
H2789       H  0.46332594  0.41879620  0.89469363     0.32500
H2790       H  0.42904330  0.46190554  0.85957482     0.35200
C2791       C  0.44201513  0.31476649  0.78765049     0.20800
C2792       C  0.44035155  0.32756020  0.79242572    -0.39100
C2793       C  0.45398966  0.34133761  0.79823196     0.19800
C2794       C  0.46823360  0.34231501  0.79949707     0.22400
C2795       C  0.46991909  0.32948329  0.79448824    -0.39600
C2796       C  0.45623157  0.31566452  0.78834886     0.21200
N2797       N  0.43073275  0.30039065  0.78202621    -0.32800
C2798       C  0.43771785  0.29199870  0.77884470    -0.10400
C2799       C  0.45366884  0.30110789  0.78247533    -0.29200
N2800       N  0.47941339  0.35682079  0.80515290    -0.45800
C2801       C  0.47219001  0.36508139  0.80711216    -0.05100
C2802       C  0.45634334  0.35581880  0.80299288    -0.22500
H2803       H  0.42923550  0.32684439  0.79154977     0.19400
H2804       H  0.48104651  0.33022237  0.79518137     0.18200
H2805       H  0.46215042  0.29751129  0.78157629     0.14400
H2806       H  0.44773837  0.35927083  0.80307078     0.14300
H2807       H  0.41894629  0.29649048  0.78052115     0.32500
H2808       H  0.49123501  0.36092014  0.80688571     0.35200
C2809       C  0.41212434  0.18585848  0.63229774     0.20800
C2810       C  0.40516096  0.18545398  0.65870266    -0.39100
C2811       C  0.41160631  0.19944759  0.67373600     0.19800
C2812       C  0.42403058  0.21278585  0.66327722     0.22400
C2813       C  0.43105681  0.21314612  0.63709014    -0.39600
C2814       C  0.42461983  0.19920267  0.62207536     0.21200
N2815       N  0.40767544  0.17437994  0.61304521    -0.32800
C2816       C  0.41744192  0.18054450  0.59051782    -0.10400
C2817       C  0.42819676  0.19594191  0.59544699    -0.29200
N2818       N  0.42733796  0.22476793  0.68049839    -0.45800
C2819       C  0.41692150  0.21903028  0.70201812    -0.05100
C2820       C  0.40699725  0.20327123  0.69875545    -0.22500
H2821       H  0.39519725  0.17514281  0.66653304     0.19400
H2822       H  0.44055417  0.22362392  0.62860251     0.18200
H2823       H  0.43712599  0.20381449  0.58104270     0.14400
H2824       H  0.39731243  0.19578537  0.71217696     0.14300
H2825       H  0.39840538  0.16318339  0.61481837     0.32500
H2826       H  0.43581291  0.23621209  0.67731069     0.35200
C2827       C  0.42632247  0.21456774  0.86734931     0.20800
C2828       C  0.43370585  0.20719613  0.87970014    -0.39100
C2829       C  0.42925271  0.20177155  0.90796831     0.19800
C2830       C  0.41836343  0.20367397  0.92263154     0.22400
C2831       C  0.41087792  0.21083036  0.91018699    -0.39600
C2832       C  0.41524600  0.21615026  0.88203420     0.21200
N2833       N  0.42830082  0.22059059  0.84076155    -0.32800
C2834       C  0.41831164  0.22589102  0.83862658    -0.10400
C2835       C  0.40993687  0.22327268  0.86385089    -0.29200
N2836       N  0.41557969  0.19698554  0.94856984    -0.45800
C2837       C  0.42452753  0.19051568  0.95049616    -0.05100
C2838       C  0.43334740  0.19332237  0.92565228    -0.22500
H2839       H  0.44209598  0.20560170  0.86803571     0.19400
H2840       H  0.40210349  0.21196132  0.92147842     0.18200
H2841       H  0.40113346  0.22616723  0.86824337     0.14400
H2842       H  0.44106651  0.18910603  0.92063499     0.14300
H2843       H  0.43578495  0.22087585  0.82491794     0.32500
H2844       H  0.40745309  0.19617347  0.96346941     0.35200
C2845       C  0.47257766  0.12078593  0.56555993     0.20800
C2846       C  0.47343506  0.13488057  0.55983072    -0.39100
C2847       C  0.45963265  0.13399730  0.55068664     0.19800
C2848       C  0.44604459  0.12012367  0.54750175     0.22400
C2849       C  0.44520550  0.10604896  0.55307888    -0.39600
C2850       C  0.45897369  0.10693827  0.56225707     0.21200
N2851       N  0.48413010  0.11847179  0.57377778    -0.32800
C2852       C  0.47782220  0.10304267  0.57560007    -0.10400
C2853       C  0.46214950  0.09547676  0.56867821    -0.29200
N2854       N  0.43454489  0.12233497  0.53861347    -0.45800
C2855       C  0.44081953  0.13771920  0.53593590    -0.05100
C2856       C  0.45645694  0.14540303  0.54333503    -0.22500
H2857       H  0.48407505  0.14572368  0.56217575     0.19400
H2858       H  0.43461761  0.09519106  0.55034195     0.18200
H2859       H  0.45426795  0.08322145  0.56754488     0.14400
H2860       H  0.46438387  0.15765922  0.54348827     0.14300
H2861       H  0.49566566  0.12682653  0.57710324     0.32500
H2862       H  0.42310510  0.11389014  0.53463947     0.35200
C2863       C  0.44859896  0.99047629  0.65774112     0.20800
C2864       C  0.45881303  0.00579275  0.66557342    -0.39100
C2865       C  0.46349664  0.01648097  0.64306769     0.19800
C2866       C  0.45855629  0.01221551  0.61484826     0.22400
C2867       C  0.44825452  0.99691789  0.60706040    -0.39600
C2868       C  0.44343171  0.98624943  0.62962003     0.21200
N2869       N  0.44306555  0.97806769  0.67479922    -0.32800
C2870       C  0.43429957  0.96586900  0.65741681    -0.10400
C2871       C  0.43414573  0.97051481  0.62914246    -0.29200
N2872       N  0.46516106  0.02444703  0.59730588    -0.45800
C2873       C  0.47420638  0.03659126  0.61457026    -0.05100
C2874       C  0.47345981  0.03210515  0.64324006    -0.22500
H2875       H  0.46298036  0.00911300  0.68748548     0.19400
H2876       H  0.44447027  0.99353496  0.58498734     0.18200
H2877       H  0.42859866  0.96329156  0.61051244     0.14400
H2878       H  0.47964805  0.03926684  0.66158552     0.14300
H2879       H  0.44552063  0.97785750  0.69667801     0.32500
H2880       H  0.46365839  0.02453450  0.57499553     0.35200
C2881       C  0.55497686  0.98607445  0.90752943     0.20800
C2882       C  0.56360721  0.00170634  0.91492741    -0.39100
C2883       C  0.56898618  0.01200574  0.89167956     0.19800
C2884       C  0.56585210  0.00710862  0.86324276     0.22400
C2885       C  0.55747630  0.99149475  0.85585211    -0.39600
C2886       C  0.55223148  0.98120992  0.87905250     0.21200
N2887       N  0.54719740  0.97413096  0.92546790    -0.32800
C2888       C  0.53946997  0.96161827  0.90821255    -0.10400
C2889       C  0.54252420  0.96555653  0.87920134    -0.29200
N2890       N  0.57065530  0.01911804  0.84530601    -0.45800
C2891       C  0.57697944  0.03176163  0.86240845    -0.05100
C2892       C  0.57634530  0.02781169  0.89142514    -0.22500
H2893       H  0.56539664  0.00559652  0.93712843     0.19400
H2894       H  0.55462181  0.98765315  0.83368869     0.18200
H2895       H  0.53740026  0.95812093  0.86065426     0.14400
H2896       H  0.57976800  0.03541021  0.90992297     0.14300
H2897       H  0.54653540  0.97457479  0.94790502     0.32500
H2898       H  0.56908872  0.01870420  0.82294976     0.35200
C2899       C  0.55763731  0.08661682  0.94002026     0.20800
C2900       C  0.55795571  0.09245170  0.96766541    -0.39100
C2901       C  0.54355111  0.08699832  0.98067929     0.19800
C2902       C  0.52989047  0.07646989  0.96725740     0.22400
C2903       C  0.52955812  0.07076591  0.93950893    -0.39600
C2904       C  0.54394643  0.07625579  0.92647472     0.21200
N2905       N  0.56978087  0.08930553  0.92374663    -0.32800
C2906       C  0.56372881  0.08056054  0.89974235    -0.10400
C2907       C  0.54767419  0.07235814  0.90056298    -0.29200
N2908       N  0.51785750  0.07241811  0.98481934    -0.45800
C2909       C  0.52428447  0.08658045  0.50773880    -0.05100
C2910       C  0.53988683  0.09691044  0.50325420    -0.22500
H2911       H  0.56863907  0.10036534  0.97851770     0.19400
H2912       H  0.51891830  0.06237515  0.92913198     0.18200
H2913       H  0.53981912  0.06421384  0.88477811     0.14400
H2914       H  0.54797253  0.10559958  0.51802172     0.14300
H2915       H  0.58141101  0.09627206  0.92897720     0.32500
H2916       H  0.50631626  0.06447835  0.98049517     0.35200
C2917       C  0.54993021  0.08269727  0.67366453     0.20800
C2918       C  0.55713995  0.07519568  0.68601129    -0.39100
C2919       C  0.56219634  0.07923673  0.71463203     0.19800
C2920       C  0.56032071  0.09002690  0.72968827     0.22400
C2921       C  0.55314709  0.09755446  0.71733504    -0.39600
C2922       C  0.54797424  0.09342262  0.68878970     0.21200
N2923       N  0.54273599  0.07971606  0.64794597    -0.32800
C2924       C  0.53593076  0.08838863  0.64686739    -0.10400
C2925       C  0.53911900  0.09727185  0.67176376    -0.29200
N2926       N  0.56558135  0.09141500  0.75687027    -0.45800
C2927       C  0.57081594  0.08142838  0.75915982    -0.05100
C2928       C  0.56888920  0.07358841  0.73329510    -0.22500
H2929       H  0.55823754  0.06646178  0.67451710     0.19400
H2930       H  0.55123738  0.10562087  0.72941010     0.18200
H2931       H  0.53461693  0.10465224  0.67751498     0.14400
H2932       H  0.57181282  0.06483102  0.72888261     0.14300
H2933       H  0.54162527  0.07149746  0.63291413     0.32500
H2934       H  0.56541062  0.09854741  0.77302037     0.35200
C2935       C  0.79628194  0.20715708  0.67746524     0.20800
C2936       C  0.81094087  0.21601474  0.66544217    -0.39100
C2937       C  0.81123359  0.22127871  0.63739129     0.19800
C2938       C  0.79794059  0.21813263  0.62253242     0.22400
C2939       C  0.78324129  0.20927634  0.63460130    -0.39600
C2940       C  0.78293481  0.20384869  0.66261743     0.21200
N2941       N  0.79292908  0.19977587  0.70277300    -0.32800
C2942       C  0.77735272  0.19155809  0.70401288    -0.10400
C2943       C  0.77066145  0.19388094  0.67948645    -0.29200
N2944       N  0.80130796  0.22371114  0.59558396    -0.45800
C2945       C  0.81680725  0.23025865  0.59328172    -0.05100
C2946       C  0.82341465  0.22904383  0.61891493    -0.22500
H2947       H  0.82132107  0.21814752  0.67669510     0.19400
H2948       H  0.77280840  0.20635394  0.62266724     0.18200
H2949       H  0.75852250  0.18842120  0.67409958     0.14400
H2950       H  0.83543495  0.23287505  0.62312307     0.14300
H2951       H  0.80076391  0.19975271  0.71769200     0.32500
H2952       H  0.79351126  0.22260939  0.57941521     0.35200
C2953       C  0.78905749  0.19048179  0.88320494     0.20800
C2954       C  0.79621917  0.19058900  0.90943388    -0.39100
C2955       C  0.80347956  0.20463700  0.92441510     0.19800
C2956       C  0.80366936  0.21758678  0.91395593     0.22400
C2957       C  0.79651699  0.21746880  0.88778809    -0.39600
C2958       C  0.78917593  0.20342575  0.87293615     0.21200
N2959       N  0.78164361  0.17870120  0.86458556    -0.32800
C2960       C  0.77701360  0.18421989  0.84238551    -0.10400
C2961       C  0.78143393  0.19956110  0.84688953    -0.29200
N2962       N  0.81151702  0.22956244  0.93192406    -0.45800
C2963       C  0.81631053  0.22420885  0.95407590    -0.05100
C2964       C  0.81154411  0.20871434  0.95018482    -0.22500
H2965       H  0.79620851  0.18051678  0.91749876     0.19400
H2966       H  0.79671625  0.22759827  0.87952228     0.18200
H2967       H  0.77952572  0.20697358  0.83269555     0.14400
H2968       H  0.81387078  0.20149311  0.96411455     0.14300
H2969       H  0.77999392  0.16766641  0.86665949     0.32500
H2970       H  0.81360606  0.24072468  0.92917247     0.35200
C2971       C  0.65853694  0.12097781  0.81226661     0.20800
C2972       C  0.67103820  0.13498971  0.80268867    -0.39100
C2973       C  0.68518671  0.13534991  0.79974988     0.19800
C2974       C  0.68665711  0.12274618  0.80618890     0.22400
C2975       C  0.67424218  0.10884346  0.81559467    -0.39600
C2976       C  0.66017865  0.10842896  0.81817126     0.21200
N2977       N  0.64374557  0.11732559  0.81580197    -0.32800
C2978       C  0.63602444  0.10230835  0.82357731    -0.10400
C2979       C  0.64590427  0.09642709  0.82527366    -0.29200
N2980       N  0.70098821  0.12565575  0.80097244    -0.45800
C2981       C  0.70883795  0.14016363  0.79079449    -0.05100
C2982       C  0.69941938  0.14670437  0.78984129    -0.22500
H2983       H  0.66977631  0.14474830  0.79739102     0.19400
H2984       H  0.67538346  0.09892506  0.81998688     0.18200
H2985       H  0.64295979  0.08481144  0.83050057     0.14400
H2986       H  0.70248394  0.15806681  0.78248659     0.14300
H2987       H  0.63910380  0.12440876  0.81224119     0.32500
H2988       H  0.70511958  0.11807844  0.80365583     0.35200
C2989       C  0.68068409  0.78677267  0.80963026     0.20800
C2990       C  0.66560685  0.77537285  0.81680748    -0.39100
C2991       C  0.65414068  0.77263753  0.79621895     0.19800
C2992       C  0.65747567  0.78072069  0.77059548     0.22400
C2993       C  0.67249208  0.79203746  0.76340368    -0.39600
C2994       C  0.68392288  0.79467785  0.78381855     0.21200
N2995       N  0.69363955  0.79168176  0.82548994    -0.32800
C2996       C  0.70514821  0.80269656  0.80946155    -0.10400
C2997       C  0.69952514  0.80483734  0.78336027    -0.29200
N2998       N  0.64460669  0.77635327  0.75501723    -0.45800
C2999       C  0.63294833  0.76539150  0.77073137    -0.05100
C3000       C  0.63840331  0.76268398  0.79655641    -0.22500
H3001       H  0.66298629  0.76916674  0.83696221     0.19400
H3002       H  0.67507849  0.79837889  0.74340559     0.18200
H3003       H  0.70599502  0.81286750  0.76641892     0.14400
H3004       H  0.63172470  0.75479793  0.81352840     0.14300
H3005       H  0.69460728  0.78777957  0.84583355     0.32500
H3006       H  0.64376458  0.78076051  0.73511744     0.35200
C3007       C  0.79844090  0.77918756  0.87747616     0.20800
C3008       C  0.80081740  0.79410616  0.87545101    -0.39100
C3009       C  0.78829322  0.79522062  0.86491039     0.19800
C3010       C  0.77439159  0.78242870  0.85731680     0.22400
C3011       C  0.77202376  0.76750013  0.85925422    -0.39600
C3012       C  0.78461785  0.76639947  0.86949262     0.21200
N3013       N  0.80872019  0.77513123  0.88587750    -0.32800
C3014       C  0.80146648  0.75967491  0.88294315    -0.10400
C3015       C  0.78639180  0.75378764  0.87285884    -0.29200
N3016       N  0.76427210  0.78656125  0.84818807    -0.45800
C3017       C  0.77182246  0.80209074  0.84978035    -0.05100
C3018       C  0.78684914  0.80792211  0.86002356    -0.22500
H3019       H  0.81168093  0.80412192  0.88134840     0.19400
H3020       H  0.76123390  0.75750030  0.85296047     0.18200
H3021       H  0.77800159  0.74193795  0.86805666     0.14400
H3022       H  0.79544879  0.81981885  0.86383119     0.14300
H3023       H  0.82011455  0.78246295  0.89242986     0.32500
H3024       H  0.75292346  0.77927985  0.84134367     0.35200
C3025       C  0.78214813  0.67403019  0.96087960     0.20800
C3026       C  0.77711592  0.66574420  0.98675028    -0.39100
C3027       C  0.76993536  0.64973204  0.98403039     0.19800
C3028       C  0.76784097  0.64257524  0.95752688     0.22400
C3029       C  0.77301879  0.65085068  0.93177758    -0.39600
C3030       C  0.78027320  0.66682045  0.93451191     0.21200
N3031       N  0.79006331  0.68935589  0.95774443    -0.32800
C3032       C  0.79338051  0.69185724  0.92925612    -0.10400
C3033       C  0.78744650  0.67809369  0.91407842    -0.29200
N3034       N  0.76159946  0.62738747  0.96077320    -0.45800
C3035       C  0.75995653  0.62483971  0.98954866    -0.05100
C3036       C  0.76490698  0.63846591  0.00483334    -0.22500
H3037       H  0.77906643  0.67136518  0.00751195     0.19400
H3038       H  0.77189322  0.64527816  0.91121687     0.18200
H3039       H  0.78871392  0.67655699  0.89135236     0.14400
H3040       H  0.76552317  0.64000886  0.02801153     0.14300
H3041       H  0.79357703  0.69759016  0.97410713     0.32500
H3042       H  0.75945545  0.61936052  0.94452937     0.35200
C3043       C  0.87111899  0.73687650  0.98207452     0.20800
C3044       C  0.88055041  0.73304623  0.49857378    -0.39100
C3045       C  0.88672172  0.73872235  0.52600871     0.19800
C3046       C  0.88436393  0.74944875  0.54014593     0.22400
C3047       C  0.87539902  0.75515701  0.52801722    -0.39600
C3048       C  0.86905987  0.74932583  0.50066477     0.21200
N3049       N  0.86298405  0.73303151  0.95735167    -0.32800
C3050       C  0.85631552  0.74181837  0.95618367    -0.10400
C3051       C  0.85901123  0.75160502  0.48378375    -0.29200
N3052       N  0.89055617  0.75216746  0.56679103    -0.45800
C3053       C  0.89661420  0.74289045  0.56976115    -0.05100
C3054       C  0.89458824  0.73443886  0.54470941    -0.22500
H3055       H  0.87928728  0.72053830  0.98352111     0.19400
H3056       H  0.87308656  0.76312441  0.53945897     0.18200
H3057       H  0.85416689  0.75879912  0.48861366     0.14400
H3058       H  0.89773126  0.72576397  0.54121437     0.14300
H3059       H  0.86135956  0.72435871  0.94297895     0.32500
H3060       H  0.88993306  0.75923017  0.58255278     0.35200
C3061       C  0.88038904  0.74836075  0.74914973     0.20800
C3062       C  0.88069149  0.75457048  0.77638975    -0.39100
C3063       C  0.86641446  0.74841454  0.79019557     0.19800
C3064       C  0.85290921  0.73687484  0.77789366     0.22400
C3065       C  0.85260485  0.73071489  0.75063676    -0.39600
C3066       C  0.86684435  0.73694145  0.73675099     0.21200
N3067       N  0.89250027  0.75158457  0.73238357    -0.32800
C3068       C  0.88658820  0.74212580  0.70923875    -0.10400
C3069       C  0.87062944  0.73291733  0.71103865    -0.29200
N3070       N  0.84104098  0.73237800  0.79602699    -0.45800
C3071       C  0.84702335  0.74114299  0.81998889    -0.05100
C3072       C  0.86279172  0.75134337  0.81715757    -0.22500
H3073       H  0.89129790  0.76328958  0.78636901     0.19400
H3074       H  0.84211187  0.72150066  0.74123110     0.18200
H3075       H  0.86294769  0.72398109  0.69622034     0.14400
H3076       H  0.87063184  0.75936022  0.83311800     0.14300
H3077       H  0.90410281  0.75932119  0.73688054     0.32500
H3078       H  0.82966582  0.72361292  0.79263971     0.35200
C3079       C  0.89716290  0.67680482  0.71135361     0.20800
C3080       C  0.89424269  0.66868528  0.73731328    -0.39100
C3081       C  0.88664697  0.65267310  0.73471556     0.19800
C3082       C  0.88244391  0.64529032  0.70821568     0.22400
C3083       C  0.88538277  0.65343018  0.68219864    -0.39600
C3084       C  0.89281430  0.66946695  0.68482831     0.21200
N3085       N  0.90302701  0.69197186  0.70832100    -0.32800
C3086       C  0.90225616  0.69434171  0.67973539    -0.10400
C3087       C  0.89602716  0.68059246  0.66429707    -0.29200
N3088       N  0.87400556  0.63000935  0.71175603    -0.45800
C3089       C  0.87258661  0.62769647  0.74067083    -0.05100
C3090       C  0.88048387  0.64153847  0.75569621    -0.22500
H3091       H  0.89701506  0.67438927  0.75809787     0.19400
H3092       H  0.88150764  0.64766931  0.66155717     0.18200
H3093       H  0.89359136  0.67889751  0.64138165     0.14400
H3094       H  0.88072539  0.64328065  0.77877981     0.14300
H3095       H  0.90668611  0.70013800  0.72485074     0.32500
H3096       H  0.86860980  0.62175013  0.69554578     0.35200
C3097       C  0.01065625  0.79442755  0.62253446     0.20800
C3098       C  0.99735041  0.79559128  0.62561179    -0.39100
C3099       C  0.98363902  0.78175585  0.63112098     0.19800
C3100       C  0.98327880  0.76788380  0.63306093     0.22400
C3101       C  0.99652161  0.76673728  0.63011983    -0.39600
C3102       C  0.01018264  0.78052066  0.62492340     0.21200
N3103       N  0.02514569  0.80581271  0.61741130    -0.32800
C3104       C  0.03387677  0.79903853  0.61677236    -0.10400
C3105       C  0.02494697  0.78330010  0.62140070    -0.29200
N3106       N  0.96891875  0.75636500  0.63781775    -0.45800
C3107       C  0.96000281  0.76286897  0.63914002    -0.05100
C3108       C  0.96873313  0.77872238  0.63517343    -0.22500
H3109       H  0.99765505  0.80643698  0.62389652     0.19400
H3110       H  0.99620855  0.75588488  0.63179904     0.18200
H3111       H  0.02876722  0.77500866  0.62212232     0.14400
H3112       H  0.96467814  0.78683021  0.63470642     0.14300
H3113       H  0.02889013  0.81744985  0.61481813     0.32500
H3114       H  0.96536680  0.74474161  0.63988024     0.35200
C3115       C  0.09873924  0.77632412  0.55217083     0.20800
C3116       C  0.10256406  0.77106725  0.52737296    -0.39100
C3117       C  0.11168654  0.76438811  0.53189183     0.19800
C3118       C  0.11642189  0.76277402  0.55914428     0.22400
C3119       C  0.11260877  0.76806797  0.58404531    -0.39600
C3120       C  0.10367077  0.77501139  0.57944939     0.21200
N3121       N  0.09164144  0.78455756  0.55306806    -0.32800
C3122       C  0.09225453  0.78877942  0.58097774    -0.10400
C3123       C  0.09953104  0.78292516  0.59822897    -0.29200
N3124       N  0.12608654  0.75724661  0.55731118    -0.45800
C3125       C  0.12772732  0.75567761  0.52870302    -0.05100
C3126       C  0.11884626  0.75989890  0.51219429    -0.22500
H3127       H  0.09935609  0.77279947  0.50595981     0.19400
H3128       H  0.11693883  0.76753371  0.60520736     0.18200
H3129       H  0.10228966  0.78500963  0.62099533     0.14400
H3130       H  0.12057607  0.76482200  0.98318555     0.14300
H3131       H  0.08752390  0.78794436  0.53546602     0.32500
H3132       H  0.13197218  0.75559284  0.57430380     0.35200
C3133       C  0.22714280  0.33557908  0.51432058     0.20800
C3134       C  0.21977865  0.31988582  0.50776157    -0.39100
C3135       C  0.21365422  0.30995700  0.53132201     0.19800
C3136       C  0.21466669  0.31522804  0.55929958     0.22400
C3137       C  0.22215949  0.33093879  0.56591401    -0.39600
C3138       C  0.22838619  0.34088129  0.54234060     0.21200
N3139       N  0.23303134  0.34729183  0.49556584    -0.32800
C3140       C  0.23810394  0.36013201  0.51178508    -0.10400
C3141       C  0.23551656  0.35662652  0.54105594    -0.29200
N3142       N  0.20698025  0.30344039  0.57750558    -0.45800
C3143       C  0.20111724  0.29062645  0.56092557    -0.05100
C3144       C  0.20511385  0.29420605  0.53208907    -0.22500
H3145       H  0.21854053  0.31570483  0.48583668     0.19400
H3146       H  0.22273346  0.33510600  0.58766923     0.18200
H3147       H  0.23786370  0.36448825  0.55881959     0.14400
H3148       H  0.20163927  0.28636196  0.51396456     0.14300
H3149       H  0.23236791  0.34664936  0.96701553     0.32500
H3150       H  0.20545054  0.30407685  0.59962782     0.35200
C3151       C  0.22667830  0.20625873  0.62323855     0.20800
C3152       C  0.22768834  0.22020243  0.61581709    -0.39100
C3153       C  0.21360131  0.21972611  0.61216260     0.19800
C3154       C  0.19955994  0.20636593  0.61549639     0.22400
C3155       C  0.19855263  0.19242133  0.62315695    -0.39600
C3156       C  0.21267305  0.19289770  0.62688877     0.21200
N3157       N  0.23840725  0.20365849  0.62721788    -0.32800
C3158       C  0.23188306  0.18854506  0.63345224    -0.10400
C3159       C  0.21583219  0.18141655  0.63356362    -0.29200
N3160       N  0.18786099  0.20893875  0.61039473    -0.45800
C3161       C  0.19454989  0.22405207  0.60398798    -0.05100
C3162       C  0.21057153  0.23117697  0.60494765    -0.22500
H3163       H  0.23864250  0.23063379  0.61291558     0.19400
H3164       H  0.18759691  0.18196042  0.62577173     0.18200
H3165       H  0.20761726  0.16943331  0.63740086     0.14400
H3166       H  0.21886312  0.24312070  0.60091035     0.14300
H3167       H  0.25014851  0.21163402  0.62535451     0.32500
H3168       H  0.17608483  0.20098149  0.61153366     0.35200
C3169       C  0.34514405  0.22314496  0.72743370     0.20800
C3170       C  0.32926687  0.21466833  0.73272023    -0.39100
C3171       C  0.31968747  0.21003953  0.70821635     0.19800
C3172       C  0.32544193  0.21343002  0.68046026     0.22400
C3173       C  0.34135275  0.22201308  0.67515805    -0.39600
C3174       C  0.35095112  0.22678270  0.69973255     0.21200
N3175       N  0.35661748  0.22780687  0.74695123    -0.32800
C3176       C  0.36983719  0.23447232  0.73160286    -0.10400
C3177       C  0.36679274  0.23420417  0.70211371    -0.29200
N3178       N  0.31394015  0.20664781  0.66089149    -0.45800
C3179       C  0.30081165  0.19895206  0.67640832    -0.05100
C3180       C  0.30393768  0.20090114  0.70593574    -0.22500
H3181       H  0.32471350  0.21149045  0.75430697     0.19400
H3182       H  0.34593814  0.22438703  0.65350936     0.18200
H3183       H  0.37501120  0.23800877  0.68468182     0.14400
H3184       H  0.29583811  0.19564505  0.72338512     0.14300
H3185       H  0.35549879  0.22592336  0.76919268     0.32500
H3186       H  0.31499856  0.20677981  0.63847336     0.35200
C3187       C  0.25982501  0.12426012  0.48509025     0.20800
C3188       C  0.26651755  0.13872234  0.49842944    -0.39100
C3189       C  0.25968802  0.13939089  0.52426155     0.19800
C3190       C  0.24710800  0.12663158  0.53592035     0.22400
C3191       C  0.24045932  0.11211937  0.52264099    -0.39600
C3192       C  0.24732212  0.11144217  0.49678366     0.21200
N3193       N  0.26348618  0.12167123  0.96249417    -0.32800
C3194       C  0.25363346  0.10643172  0.95883013    -0.10400
C3195       C  0.24276426  0.10059113  0.98084258    -0.29200
N3196       N  0.24327949  0.13016113  0.56137733    -0.45800
C3197       C  0.25363030  0.14521252  0.56609397    -0.05100
C3198       C  0.26395928  0.15138397  0.54331115    -0.22500
H3199       H  0.27649971  0.14867173  0.48961410     0.19400
H3200       H  0.23083441  0.10205194  0.53201043     0.18200
H3201       H  0.23371458  0.08881716  0.98387265     0.14400
H3202       H  0.27369672  0.16291414  0.54155162     0.14300
H3203       H  0.27291664  0.12883268  0.94965393     0.32500
H3204       H  0.23462441  0.12264068  0.57530274     0.35200
C3205       C  0.25903011  0.12331311  0.73470001     0.20800
C3206       C  0.26686812  0.11675767  0.74828106    -0.39100
C3207       C  0.26066341  0.10935935  0.77451758     0.19800
C3208       C  0.24757379  0.10846928  0.78613587     0.22400
C3209       C  0.23976625  0.11505565  0.77259732    -0.39600
C3210       C  0.24605632  0.12258370  0.74651797     0.21200
N3211       N  0.26310506  0.13168408  0.71045841    -0.32800
C3212       C  0.25277201  0.13645705  0.70696222    -0.10400
C3213       C  0.24192820  0.13100595  0.72899746    -0.29200
N3214       N  0.24450386  0.10163749  0.81200900    -0.45800
C3215       C  0.25578565  0.09829555  0.81707740    -0.05100
C3216       C  0.26604937  0.10282974  0.79411838    -0.22500
H3217       H  0.27728499  0.11774536  0.73949238     0.19400
H3218       H  0.22980895  0.11474846  0.78213105     0.18200
H3219       H  0.23259530  0.13327316  0.73220963     0.14400
H3220       H  0.27638113  0.10205160  0.79255228     0.14300
H3221       H  0.27266559  0.13445648  0.69763536     0.32500
H3222       H  0.23562651  0.09990671  0.82590303     0.35200
C3223       C  0.34864735  0.11654949  0.97672167     0.20800
C3224       C  0.33279447  0.10800420  0.98228295    -0.39100
C3225       C  0.32309207  0.10367373  0.95795985     0.19800
C3226       C  0.32871683  0.10771584  0.93020861     0.22400
C3227       C  0.34458060  0.11618354  0.92461983    -0.39600
C3228       C  0.35429530  0.12034635  0.94893678     0.21200
N3229       N  0.36021693  0.12265050  0.99619412    -0.32800
C3230       C  0.37331843  0.13030382  0.98066214    -0.10400
C3231       C  0.37010719  0.12905573  0.95113183    -0.29200
N3232       N  0.31707815  0.10296573  0.91100921    -0.45800
C3233       C  0.30398357  0.09575892  0.92669974    -0.05100
C3234       C  0.30725996  0.09590395  0.95600391    -0.22500
H3235       H  0.32833027  0.10517334  0.00398398     0.19400
H3236       H  0.34902605  0.11952606  0.90300070     0.18200
H3237       H  0.37821444  0.13436642  0.93371103     0.14400
H3238       H  0.29914617  0.09148535  0.97360471     0.14300
H3239       H  0.35824902  0.11824634  0.51660048     0.32500
H3240       H  0.31797872  0.10483658  0.88875953     0.35200
C3241       C  0.21627368  0.89097009  0.82392149     0.20800
C3242       C  0.22388714  0.88290356  0.83041070    -0.39100
C3243       C  0.22974637  0.87894395  0.80668892     0.19800
C3244       C  0.22802836  0.88259905  0.77861161     0.22400
C3245       C  0.22059620  0.89084595  0.77216433    -0.39600
C3246       C  0.21484567  0.89491412  0.79590689     0.21200
N3247       N  0.20862407  0.89497450  0.84230479    -0.32800
C3248       C  0.20237909  0.90156378  0.82581128    -0.10400
C3249       C  0.20608413  0.90184917  0.79684726    -0.29200
N3250       N  0.23322504  0.87618217  0.75975884    -0.45800
C3251       C  0.23832484  0.86847799  0.77604909    -0.05100
C3252       C  0.23651218  0.87005156  0.80536959    -0.22500
H3253       H  0.22468038  0.87946033  0.85218020     0.19400
H3254       H  0.21889530  0.89339275  0.75021733     0.18200
H3255       H  0.20217246  0.90582160  0.77876248     0.14400
H3256       H  0.23887435  0.86457149  0.82316636     0.14300
H3257       H  0.20725970  0.89285559  0.86446140     0.32500
H3258       H  0.23272154  0.87646476  0.73726059     0.35200
C3259       C  0.12746643  0.88071383  0.74996961     0.20800
C3260       C  0.12120763  0.88076518  0.72278263    -0.39100
C3261       C  0.11288145  0.86642312  0.70901019     0.19800
C3262       C  0.11103366  0.85310252  0.72134775     0.22400
C3263       C  0.11721135  0.85304377  0.74852108    -0.39600
C3264       C  0.12546147  0.86733356  0.76229314     0.21200
N3265       N  0.13639795  0.89287577  0.76695494    -0.32800
C3266       C  0.14004980  0.88712895  0.79018589    -0.10400
C3267       C  0.13341657  0.87126230  0.78807209    -0.29200
N3268       N  0.10341941  0.84112296  0.70333858    -0.45800
C3269       C  0.10033733  0.84680806  0.67936626    -0.05100
C3270       C  0.10596110  0.86252998  0.68210786    -0.22500
H3271       H  0.12294835  0.89122349  0.71284798     0.19400
H3272       H  0.11596611  0.84267440  0.75798221     0.18200
H3273       H  0.13465057  0.86368885  0.80299252     0.14400
H3274       H  0.10557762  0.87015956  0.66613753     0.14300
H3275       H  0.14008047  0.90437459  0.76271141     0.32500
H3276       H  0.10079882  0.82983588  0.70684977     0.35200
C3277       C  0.11321069  0.86805906  0.00041109     0.20800
C3278       C  0.11322642  0.87580923  0.97518226    -0.39100
C3279       C  0.12732383  0.88350087  0.96051697     0.19800
C3280       C  0.14031995  0.88336627  0.97027227     0.22400
C3281       C  0.14034356  0.87577092  0.99554093    -0.39600
C3282       C  0.12540897  0.86436672  0.50900197     0.21200
N3283       N  0.10010249  0.85486548  0.51604557    -0.32800
C3284       C  0.10598704  0.85033308  0.53783071    -0.10400
C3285       C  0.12172322  0.85607319  0.53419300    -0.29200
N3286       N  0.15191654  0.89047346  0.95155776    -0.45800
C3287       C  0.14635066  0.89520633  0.92966288    -0.05100
C3288       C  0.13107913  0.89122645  0.93452945    -0.22500
H3289       H  0.10294280  0.87553603  0.96717586     0.19400
H3290       H  0.14982035  0.87263134  0.50246502     0.18200
H3291       H  0.12937673  0.85417802  0.54788765     0.14400
H3292       H  0.12353177  0.89299042  0.92028104     0.14300
H3293       H  0.08867093  0.85215384  0.51328464     0.32500
H3294       H  0.16280140  0.89154310  0.95306202     0.35200
C3295       C  0.20227188  0.98395267  0.86561338     0.20800
C3296       C  0.20223706  0.99783318  0.86380675    -0.39100
C3297       C  0.21593156  0.01103344  0.87247093     0.19800
C3298       C  0.22877003  0.01047909  0.88176650     0.22400
C3299       C  0.22878033  0.99658942  0.88372249    -0.39600
C3300       C  0.21500830  0.98336873  0.87548297     0.21200
N3301       N  0.19061356  0.96979951  0.85913294    -0.32800
C3302       C  0.19591181  0.96012870  0.86524341    -0.10400
C3303       C  0.21107103  0.96815562  0.87549647    -0.29200
N3304       N  0.24034436  0.02460463  0.88867344    -0.45800
C3305       C  0.23478075  0.03420615  0.88411829    -0.05100
C3306       C  0.21959062  0.02616456  0.87401367    -0.22500
H3307       H  0.19222905  0.99830215  0.85647507     0.19400
H3308       H  0.23872667  0.99609405  0.89136825     0.18200
H3309       H  0.21822694  0.96347506  0.88207610     0.14400
H3310       H  0.21225886  0.03078847  0.86839985     0.14300
H3311       H  0.17966841  0.96687031  0.85140283     0.32500
H3312       H  0.25130255  0.02752433  0.89629155     0.35200
C3313       C  0.89852159  0.21895031  0.93740694     0.20800
C3314       C  0.89231517  0.22848564  0.93250310    -0.39100
C3315       C  0.88800827  0.23338527  0.95723140     0.19800
C3316       C  0.88960415  0.22898547  0.98475099     0.22400
C3317       C  0.89602318  0.21963771  0.98968494    -0.39600
C3318       C  0.90047795  0.21487043  0.96497143     0.21200
N3319       N  0.90223831  0.21170486  0.91746617    -0.32800
C3320       C  0.90668891  0.20304949  0.93247323    -0.10400
C3321       C  0.90589382  0.20483060  0.96213632    -0.29200
N3322       N  0.88298570  0.23364817  0.00428124    -0.45800
C3323       C  0.87718199  0.24108987  0.98907714    -0.05100
C3324       C  0.88025658  0.24134190  0.95973525    -0.22500
H3325       H  0.89037388  0.23134579  0.91096657     0.19400
H3326       H  0.89688832  0.21582974  0.01108891     0.18200
H3327       H  0.90810429  0.19887377  0.97925154     0.14400
H3328       H  0.87623905  0.24564355  0.94235803     0.14300
H3329       H  0.90128123  0.21218290  0.89508133     0.32500
H3330       H  0.87929248  0.23087080  0.52337057     0.35200
C3331       C  0.12346830  0.34572003  0.78259358     0.20800
C3332       C  0.11709640  0.33649448  0.80710322    -0.39100
C3333       C  0.10848919  0.32060997  0.80198193     0.19800
C3334       C  0.10630613  0.31443552  0.77450061     0.22400
C3335       C  0.11274846  0.32364871  0.75005524    -0.39600
C3336       C  0.12143023  0.33949786  0.75519042     0.21200
N3337       N  0.13264836  0.36105579  0.78179397    -0.32800
C3338       C  0.13654959  0.36459415  0.75372137    -0.10400
C3339       C  0.12977222  0.35145413  0.73646957    -0.29200
N3340       N  0.09859962  0.29903587  0.77550645    -0.45800
C3341       C  0.09607824  0.29532870  0.80383018    -0.05100
C3342       C  0.10194543  0.30847529  0.82103745    -0.22500
H3343       H  0.11907009  0.34130027  0.82864267     0.19400
H3344       H  0.11145080  0.31879690  0.72868713     0.18200
H3345       H  0.13105015  0.35072492  0.71345195     0.14400
H3346       H  0.10218288  0.30908048  0.84436535     0.14300
H3347       H  0.13634630  0.36861458  0.79934062     0.32500
H3348       H  0.09604663  0.29152075  0.75812270     0.35200
C3349       C  0.11173474  0.24995096  0.94927492     0.20800
C3350       C  0.11784204  0.25596406  0.97662957    -0.39100
C3351       C  0.12642810  0.24594314  0.49440983     0.19800
C3352       C  0.12568804  0.23668246  0.97963529     0.22400
C3353       C  0.11952020  0.23062220  0.95225899    -0.39600
C3354       C  0.11245881  0.23769497  0.93762676     0.21200
N3355       N  0.10486268  0.25494561  0.93079180    -0.32800
C3356       C  0.10104972  0.24573168  0.90727918    -0.10400
C3357       C  0.10559570  0.23482708  0.91069662    -0.29200
N3358       N  0.13735485  0.23135557  0.49911115    -0.45800
C3359       C  0.14048418  0.24038286  0.52281988    -0.05100
C3360       C  0.13376916  0.24949859  0.52069156    -0.22500
H3361       H  0.11723627  0.26131857  0.49030322     0.19400
H3362       H  0.12035425  0.22124942  0.94287069     0.18200
H3363       H  0.10429535  0.22616453  0.89534058     0.14400
H3364       H  0.13473293  0.25810873  0.53584433     0.14300
H3365       H  0.10295615  0.26411167  0.93389814     0.32500
H3366       H  0.13662122  0.22415827  0.99341259     0.35200
C3367       C  0.12758893  0.23583586  0.69184822     0.20800
C3368       C  0.11270084  0.22987669  0.70309820    -0.39100
C3369       C  0.11182719  0.23607700  0.72964969     0.19800
C3370       C  0.12482537  0.24728204  0.74386003     0.22400
C3371       C  0.13967005  0.25326774  0.73259118    -0.39600
C3372       C  0.14052943  0.24713875  0.70604243     0.21200
N3373       N  0.13144217  0.23255107  0.66622789    -0.32800
C3374       C  0.14689594  0.24195369  0.66404863    -0.10400
C3375       C  0.15299050  0.25115807  0.68850307    -0.29200
N3376       N  0.12093902  0.25176791  0.76803112    -0.45800
C3377       C  0.10535702  0.24348956  0.76919906    -0.05100
C3378       C  0.09920999  0.23350209  0.74570589    -0.22500
H3379       H  0.10253241  0.22134019  0.69167581     0.19400
H3380       H  0.14976889  0.26232232  0.74335354     0.18200
H3381       H  0.16482563  0.26003565  0.69236225     0.14400
H3382       H  0.08717160  0.22576183  0.74066070     0.14300
H3383       H  0.12395160  0.22489339  0.65064930     0.32500
H3384       H  0.12841138  0.26028679  0.78242876     0.35200
C3385       C  0.01166736  0.20954981  0.85833522     0.20800
C3386       C  0.99880576  0.19547427  0.86627220    -0.39100
C3387       C  0.98536862  0.19590394  0.87269885     0.19800
C3388       C  0.98484695  0.20933963  0.87123967     0.22400
C3389       C  0.99772308  0.22340741  0.86369994    -0.39600
C3390       C  0.01111321  0.22297401  0.85732521     0.21200
N3391       N  0.02581054  0.21226500  0.85133118    -0.32800
C3392       C  0.03431280  0.22754703  0.84616053    -0.10400
C3393       C  0.02552854  0.23459036  0.84961137    -0.29200
N3394       N  0.97063037  0.20666314  0.87702052    -0.45800
C3395       C  0.96197618  0.19142778  0.88228137    -0.05100
C3396       C  0.97077535  0.18430391  0.88005089    -0.22500
H3397       H  0.99919316  0.18495601  0.86712979     0.19400
H3398       H  0.99730441  0.23390713  0.86263312     0.18200
H3399       H  0.02928478  0.24664754  0.84734438     0.14400
H3400       H  0.96689943  0.17223112  0.88249460     0.14300
H3401       H  0.02956511  0.20431941  0.85087362     0.32500
H3402       H  0.96695351  0.21467775  0.87688200     0.35200
C3403       C  0.86976097  0.12343725  0.73884264     0.20800
C3404       C  0.87708179  0.13816734  0.75125850    -0.39100
C3405       C  0.88367721  0.13946900  0.77864463     0.19800
C3406       C  0.88314110  0.12704598  0.79244273     0.22400
C3407       C  0.87581249  0.11229721  0.78001038    -0.39600
C3408       C  0.86908482  0.11096119  0.75269020     0.21200
N3409       N  0.86195410  0.11911382  0.71373843    -0.32800
C3410       C  0.85611037  0.10375986  0.71152318    -0.10400
C3411       C  0.86037791  0.09822617  0.73537345    -0.29200
N3412       N  0.88986527  0.13117654  0.81861611    -0.45800
C3413       C  0.89461267  0.14628970  0.82164616    -0.05100
C3414       C  0.89097579  0.15189928  0.79713035    -0.22500
H3415       H  0.87731013  0.14783208  0.74063542     0.19400
H3416       H  0.87510892  0.10252331  0.79108513     0.18200
H3417       H  0.85716493  0.08646158  0.73984271     0.14400
H3418       H  0.89316489  0.16342337  0.79351598     0.14300
H3419       H  0.86029448  0.12613294  0.69933334     0.32500
H3420       H  0.89086224  0.12406560  0.83379835     0.35200
C3421       C  0.87150961  0.11318448  0.54308051     0.20800
C3422       C  0.88646985  0.12290334  0.53258681    -0.39100
C3423       C  0.88737228  0.12786918  0.50394544     0.19800
C3424       C  0.87058195  0.12782865  0.99065779     0.22400
C3425       C  0.85941094  0.11374015  0.49763722    -0.39600
C3426       C  0.85850854  0.10883152  0.52623890     0.21200
N3427       N  0.86751708  0.10739692  0.56983387    -0.32800
C3428       C  0.85187694  0.09937789  0.57008803    -0.10400
C3429       C  0.84583648  0.10000125  0.54325841    -0.29200
N3430       N  0.87455346  0.13482310  0.96492724    -0.45800
C3431       C  0.88995732  0.14065901  0.96263866    -0.05100
C3432       C  0.89587815  0.13726367  0.98709126    -0.22500
H3433       H  0.89662758  0.12661769  0.54596024     0.19400
H3434       H  0.84597029  0.11978320  0.99212102     0.18200
H3435       H  0.83381415  0.09492466  0.53720097     0.14400
H3436       H  0.90778699  0.14075481  0.99164701     0.14300
H3437       H  0.87496634  0.10908457  0.58708397     0.32500
H3438       H  0.86728988  0.13597679  0.95016374     0.35200
C3439       C  0.78415534  0.09861110  0.70237225     0.20800
C3440       C  0.77938131  0.10225849  0.72810564    -0.39100
C3441       C  0.77364826  0.11233820  0.72550412     0.19800
C3442       C  0.77256374  0.11820766  0.69917315     0.22400
C3443       C  0.77748665  0.11467650  0.67340571    -0.39600
C3444       C  0.78337833  0.10469014  0.67606322     0.21200
N3445       N  0.79116433  0.09031774  0.69963269    -0.32800
C3446       C  0.79515482  0.09127058  0.67150612    -0.10400
C3447       C  0.79037053  0.10004869  0.65601017    -0.29200
N3448       N  0.76731636  0.12802706  0.70270141    -0.45800
C3449       C  0.76526841  0.12859467  0.73150582    -0.05100
C3450       C  0.76909577  0.11894927  0.74642956    -0.22500
H3451       H  0.78053049  0.09795467  0.74880730     0.19400
H3452       H  0.77720784  0.11971894  0.65295962     0.18200
H3453       H  0.79256081  0.10336781  0.63356657     0.14400
H3454       H  0.76898475  0.11733459  0.76953058     0.14300
H3455       H  0.79393475  0.08511907  0.71627175     0.32500
H3456       H  0.76584053  0.13445500  0.68664767     0.35200
C3457       C  0.76133539  0.86626728  0.94426091     0.20800
C3458       C  0.76544352  0.86963235  0.97350136    -0.39100
C3459       C  0.76422155  0.88183587  0.98507462     0.19800
C3460       C  0.76475486  0.88920512  0.46783582     0.22400
C3461       C  0.75519355  0.88670949  0.93950940    -0.39600
C3462       C  0.75630590  0.87443437  0.92799937     0.21200
N3463       N  0.76111976  0.85498284  0.92843338    -0.32800
C3464       C  0.75579594  0.85589481  0.90197662    -0.10400
C3465       C  0.75267208  0.86788334  0.90086274    -0.29200
N3466       N  0.76418913  0.89980646  0.48454915    -0.45800
C3467       C  0.76543133  0.89605937  0.51212210    -0.05100
C3468       C  0.76719075  0.88318811  0.51294676    -0.22500
H3469       H  0.76897494  0.86299830  0.98647037     0.19400
H3470       H  0.75102251  0.89291218  0.92686335     0.18200
H3471       H  0.74832041  0.87132169  0.88265041     0.14400
H3472       H  0.76753019  0.87707428  0.53187107     0.14300
H3473       H  0.76427000  0.84706815  0.93525743     0.32500
H3474       H  0.76186136  0.90831125  0.47776058     0.35200
C3475       C  0.76776588  0.88591812  0.69117510     0.20800
C3476       C  0.77421095  0.88732870  0.71884357    -0.39100
C3477       C  0.77232279  0.87371181  0.73096421     0.19800
C3478       C  0.76484723  0.85983671  0.71633837     0.22400
C3479       C  0.75831744  0.85842369  0.68883712    -0.39600
C3480       C  0.75994744  0.87194100  0.67699173     0.21200
N3481       N  0.76731498  0.89694203  0.67555312    -0.32800
C3482       C  0.75894116  0.88985093  0.65151072    -0.10400
C3483       C  0.75415098  0.87426080  0.65166126    -0.29200
N3484       N  0.76297262  0.84832708  0.73355869    -0.45800
C3485       C  0.76881122  0.85474937  0.75966917    -0.05100
C3486       C  0.77502028  0.87063193  0.75877127    -0.22500
H3487       H  0.77966327  0.89808450  0.73059301     0.19400
H3488       H  0.75182420  0.84744886  0.67800483     0.18200
H3489       H  0.74736419  0.86577878  0.63538249     0.14400
H3490       H  0.77933801  0.87857327  0.77677828     0.14300
H3491       H  0.77218985  0.90851431  0.68107620     0.32500
H3492       H  0.75656365  0.83661857  0.72874890     0.35200
C3493       C  0.79153008  0.98177364  0.61109623     0.20800
C3494       C  0.80541890  0.99532874  0.61801892    -0.39100
C3495       C  0.80430527  0.00857937  0.62231455     0.19800
C3496       C  0.79043353  0.00829510  0.61960901     0.22400
C3497       C  0.77659135  0.99476799  0.61301352    -0.39600
C3498       C  0.77767260  0.98155906  0.60906330     0.21200
N3499       N  0.78941799  0.96768612  0.60572362    -0.32800
C3500       C  0.77407730  0.95846467  0.60058949    -0.10400
C3501       C  0.76640502  0.96671574  0.60263671    -0.29200
N3502       N  0.79236410  0.02232657  0.62411815    -0.45800
C3503       C  0.80755322  0.03173511  0.63002220    -0.05100
C3504       C  0.81541224  0.02356126  0.62915830    -0.22500
H3505       H  0.81627740  0.99555213  0.61986154     0.19400
H3506       H  0.76573632  0.99454616  0.61107722     0.18200
H3507       H  0.75421259  0.96243665  0.59953906     0.14400
H3508       H  0.82760331  0.02801004  0.63269344     0.14300
H3509       H  0.79783229  0.96450287  0.60581008     0.32500
H3510       H  0.78383155  0.02534085  0.62319149     0.35200
C3511       C  0.68574216  0.88893280  0.53351270     0.20800
C3512       C  0.67530332  0.88359817  0.51016817    -0.39100
C3513       C  0.65967231  0.87708366  0.51723137     0.19800
C3514       C  0.65479802  0.87608195  0.54541586     0.22400
C3515       C  0.66525553  0.88141431  0.56880794    -0.39600
C3516       C  0.68090745  0.88779986  0.56175809     0.21200
N3517       N  0.70106354  0.89467866  0.53253634    -0.32800
C3518       C  0.70607872  0.89705380  0.56033280    -0.10400
C3519       C  0.69384335  0.89299139  0.57922879    -0.29200
N3520       N  0.63929066  0.86857272  0.54650975    -0.45800
C3521       C  0.63425188  0.86461877  0.51887542    -0.05100
C3522       C  0.64664392  0.86981559  0.49999465    -0.22500
H3523       H  0.67904497  0.88403734  0.48816783     0.19400
H3524       H  0.66144234  0.88021845  0.59092910     0.18200
H3525       H  0.69428266  0.89333566  0.60256887     0.14400
H3526       H  0.64643140  0.87529809  0.97922225     0.14300
H3527       H  0.70764476  0.89635508  0.51409368     0.32500
H3528       H  0.63254066  0.86569873  0.56503715     0.35200
loop_ 
_geom_bond_atom_site_label_1 
_geom_bond_atom_site_label_2 
_geom_bond_distance 
_geom_bond_site_symmetry_2 
_ccdc_geom_bond_type 
In1           O3   2.264       .  S
In1           O4   2.251       .  S
In1          O12   2.254       .  S
In1           O6   2.273       .  S
In1           O8   2.268       .  S
In1           O9   2.272       .  S
In1          O10   2.260       .  S
In1          O13   2.238       .  S
C2            O8   1.259       .  A
C2           O10   1.256       .  A
C2         C1703   1.474       .  S
O3           C11   1.262       .  A
O4           C11   1.262       .  A
C5           O12   1.260       .  A
C5            O6   1.263       .  A
C5         C1736   1.480       .  S
C7            O9   1.262       .  A
C7           O13   1.256       .  A
C7         C1754   1.471       .  S
C11        C1718   1.474       .  S
In14         O16   2.253       .  S
In14         O17   2.262       .  S
In14         O25   2.263       .  S
In14         O19   2.284       .  S
In14         O21   2.271       .  S
In14         O22   2.265       .  S
In14         O23   2.235       .  S
In14         O26   2.238       .  S
C15          O21   1.265       .  A
C15          O23   1.258       .  A
C15        C1646   1.472       .  S
O16          C24   1.258       .  A
O17          C24   1.262       .  A
C18          O25   1.257       .  A
C18          O19   1.259       .  A
C18        C1739   1.480       .  S
C20          O22   1.264       .  A
C20          O26   1.261       .  A
C20        C1682   1.474       .  S
C24        C1664   1.475       .  S
In27         O29   2.240       .  S
In27         O30   2.250       .  S
In27         O38   2.250       .  S
In27         O32   2.278       .  S
In27         O34   2.259       .  S
In27         O35   2.252       .  S
In27         O36   2.233       .  S
In27         O39   2.258       .  S
C28          O34   1.264       .  A
C28          O36   1.260       .  A
C28        C1613   1.469       .  S
O29          C37   1.261       .  A
O30          C37   1.263       .  A
C31          O38   1.256       .  A
C31          O32   1.259       .  A
C31        C1628   1.475       .  S
C33          O35   1.259       .  A
C33          O39   1.258       .  A
C33        C1592   1.470       .  S
C37        C1577   1.469       .  S
In40         O42   2.246       .  S
In40         O43   2.261       .  S
In40         O51   2.261       .  S
In40         O45   2.278       .  S
In40         O47   2.270       .  S
In40         O48   2.281       .  S
In40         O49   2.238       .  S
In40         O52   2.237       .  S
C41          O47   1.264       .  A
C41          O49   1.260       .  A
C41        C1667   1.474       .  S
O42          C50   1.260       .  A
O43          C50   1.263       .  A
C44          O51   1.257       .  A
C44          O45   1.258       .  A
C44        C1631   1.477       .  S
C46          O48   1.262       .  A
C46          O52   1.258       .  A
C46        C1649   1.475       .  S
C50        C1556   1.472       .  S
In53         O55   2.242       .  S
In53         O56   2.247       .  S
In53         O64   2.279       .  S
In53         O58   2.245       .  S
In53         O60   2.258       .  S
In53         O61   2.256       .  S
In53         O62   2.224       .  S
In53         O65   2.260       .  S
C54          O60   1.264       .  A
C54          O62   1.260       .  A
C54        C1502   1.467       .  S
O55          C63   1.262       .  A
O56          C63   1.262       .  A
C57          O64   1.260       .  A
C57          O58   1.256       .  A
C57        C1538   1.473       .  S
C59          O61   1.259       .  A
C59          O65   1.258       .  A
C59        C1523   1.473       .  S
C63        C1484   1.467       .  S
In66         O68   2.241       .  S
In66         O69   2.246       .  S
In66         O77   2.264       .  S
In66         O71   2.263       .  S
In66         O73   2.262       .  S
In66         O74   2.261       .  S
In66         O75   2.243       .  S
In66         O78   2.248       .  S
C67          O73   1.263       .  A
C67          O75   1.259       .  A
C67        C1430   1.473       .  S
O68          C76   1.262       .  A
O69          C76   1.263       .  A
C70          O77   1.258       .  A
C70          O71   1.259       .  A
C70        C1541   1.475       .  S
C72          O74   1.261       .  A
C72          O78   1.258       .  A
C72        C1451   1.471       .  S
C76        C1469   1.470       .  S
In79         O81   2.252       .  S
In79         O82   2.246       .  S
In79         O90   2.239       .  S
In79         O84   2.259       .  S
In79         O86   2.251       .  S
In79         O87   2.252       .  S
In79         O88   2.231       .  S
In79         O91   2.239       .  S
C80          O86   1.264       .  A
C80          O88   1.260       .  A
C80        C1448   1.467       .  S
O81          C89   1.258       .  A
O82          C89   1.260       .  A
C83          O90   1.257       .  A
C83          O84   1.259       .  A
C83        C1394   1.466       .  S
C85          O87   1.263       .  A
C85          O91   1.261       .  A
C85        C1415   1.469       .  S
C89        C1433   1.468       .  S
In92         O94   2.246       .  S
In92         O95   2.246       .  S
In92        O103   2.234       .  S
In92         O97   2.277       .  S
In92         O99   2.264       .  S
In92        O100   2.233       .  S
In92        O101   2.223       .  S
In92        O104   2.242       .  S
C93          O99   1.266       .  A
C93         O101   1.260       .  A
C93        C1595   1.471       .  S
O94         C102   1.258       .  A
O95         C102   1.260       .  A
C96         O103   1.255       .  A
C96          O97   1.262       .  A
C96        C1397   1.470       .  S
C98         O100   1.263       .  A
C98         O104   1.262       .  A
C98        C1379   1.466       .  S
C102       C1610   1.466       .  S
In105       O107   2.260       .  S
In105       O108   2.253       .  S
In105       O116   2.234       .  S
In105       O110   2.279       .  S
In105       O112   2.258       .  S
In105       O113   2.248       .  S
In105       O114   2.228       .  S
In105       O117   2.247       .  S
C106        O112   1.264       .  A
C106        O114   1.261       .  A
C106       C1520   1.469       .  S
O107        C115   1.258       .  A
O108        C115   1.258       .  A
C109        O116   1.255       .  A
C109        O110   1.260       .  A
C109       C1340   1.469       .  S
C111        O113   1.262       .  A
C111        O117   1.262       .  A
C111       C1358   1.470       .  S
C115       C1505   1.470       .  S
In118       O120   2.227       .  S
In118       O121   2.262       .  S
In118       O129   2.243       .  S
In118       O123   2.268       .  S
In118       O125   2.254       .  S
In118       O126   2.261       .  S
In118       O127   2.239       .  S
In118       O130   2.224       .  S
C119        O125   1.263       .  A
C119        O127   1.261       .  A
C119       C1304   1.471       .  S
O120        C128   1.256       .  A
O121        C128   1.261       .  A
C122        O129   1.256       .  A
C122        O123   1.258       .  A
C122       C1343   1.468       .  S
C124        O126   1.265       .  A
C124        O130   1.261       .  A
C124       C1322   1.469       .  S
C128       C1289   1.465       .  S
In131       O133   2.253       .  S
In131       O134   2.238       .  S
In131       O142   2.247       .  S
In131       O136   2.258       .  S
In131       O138   2.257       .  S
In131       O139   2.250       .  S
In131       O140   2.235       .  S
In131       O143   2.250       .  S
C132        O138   1.262       .  A
C132        O140   1.260       .  A
C132       C1286   1.468       .  S
O133        C141   1.262       .  A
O134        C141   1.260       .  A
C135        O142   1.258       .  A
C135        O136   1.259       .  A
C135       C1250   1.469       .  S
C137        O139   1.260       .  A
C137        O143   1.259       .  A
C137       C1307   1.470       .  S
C141       C1268   1.467       .  S
In144       O146   2.272       .  S
In144       O147   2.249       .  S
In144       O155   2.249       .  S
In144       O149   2.262       .  S
In144       O151   2.239       .  S
In144       O152   2.262       .  S
In144       O153   2.267       .  S
In144       O156   2.249       .  S
C145        O151   1.258       .  A
C145        O153   1.260       .  A
C145       C1721   1.471       .  S
O146        C154   1.261       .  A
O147        C154   1.255       .  A
C148        O155   1.257       .  A
C148        O149   1.260       .  A
C148       C1253   1.470       .  S
C150        O152   1.261       .  A
C150        O156   1.261       .  A
C150       C1700   1.474       .  S
C154       C1232   1.472       .  S
In157       O159   2.244       .  S
In157       O160   2.240       .  S
In157       O168   2.231       .  S
In157       O162   2.273       .  S
In157       O164   2.255       .  S
In157       O165   2.254       .  S
In157       O166   2.224       .  S
In157       O169   2.240       .  S
C158        O164   1.265       .  A
C158        O166   1.260       .  A
C158       C1178   1.466       .  S
O159        C167   1.259       .  A
O160        C167   1.260       .  A
C161        O168   1.256       .  A
C161        O162   1.261       .  A
C161       C1217   1.470       .  S
C163        O165   1.262       .  A
C163        O169   1.262       .  A
C163       C1685   1.471       .  S
C167       C1196   1.463       .  S
In170       O172   2.231       .  S
In170       O173   2.257       .  S
In170       O181   2.252       .  S
In170       O175   2.265       .  S
In170       O177   2.251       .  S
In170       O178   2.251       .  S
In170       O179   2.228       .  S
In170       O182   2.240       .  S
C171        O177   1.263       .  A
C171        O179   1.259       .  A
C171       C1142   1.464       .  S
O172        C180   1.257       .  A
O173        C180   1.262       .  A
C174        O181   1.258       .  A
C174        O175   1.257       .  A
C174       C1214   1.470       .  S
C176        O178   1.263       .  A
C176        O182   1.261       .  A
C176       C1127   1.469       .  S
C180       C1163   1.466       .  S
In183       O185   2.253       .  S
In183       O186   2.255       .  S
In183       O194   2.244       .  S
In183       O188   2.276       .  S
In183       O190   2.264       .  S
In183       O191   2.258       .  S
In183       O192   2.222       .  S
In183       O195   2.249       .  S
C184        O190   1.266       .  A
C184        O192   1.261       .  A
C184       C1160   1.469       .  S
O185        C193   1.261       .  A
O186        C193   1.262       .  A
C187        O194   1.256       .  A
C187        O188   1.259       .  A
C187       C1088   1.472       .  S
C189        O191   1.259       .  A
C189        O195   1.258       .  A
C189       C1145   1.469       .  S
C193       C1109   1.473       .  S
In196       O199   2.258       .  S
In196       O207   2.246       .  S
In196       O201   2.270       .  S
In196       O204   2.267       .  S
In196       O208   2.225       .  S
In196      O1962   2.239   1_554  S
In196      O1967   2.268   1_554  S
In196      O1969   2.224   1_554  S
C197        O203   1.265       .  A
C197        O205   1.259       .  A
C197       C1073   1.475       .  S
O198      In1960   2.242       .  S
O198        C206   1.262       .  A
O199       C1970   1.263   1_554  A
C200        O207   1.256       .  A
C200        O201   1.258       .  A
C200       C1091   1.471       .  S
C202        O204   1.261       .  A
C202        O208   1.258       .  A
C202       C1052   1.467       .  S
O203      In1960   2.283       .  S
O205      In1960   2.227       .  S
C206       O1963   1.263       .  A
C206       C1466   1.472       .  S
In209       O211   2.250       .  S
In209       O212   2.250       .  S
In209       O220   2.241       .  S
In209       O214   2.280       .  S
In209       O216   2.243       .  S
In209       O217   2.247       .  S
In209       O218   2.239       .  S
In209       O221   2.255       .  S
C210        O216   1.264       .  A
C210        O218   1.260       .  A
C210       C1055   1.467       .  S
O211        C219   1.258       .  A
O212        C219   1.261       .  A
C213        O220   1.257       .  A
C213        O214   1.261       .  A
C213       C1034   1.474       .  S
C215        O217   1.262       .  A
C215        O221   1.262       .  A
C215       C1412   1.472       .  S
C219       C1070   1.470       .  S
In222       O224   2.240       .  S
In222       O225   2.257       .  S
In222       O233   2.240       .  S
In222       O227   2.270       .  S
In222       O229   2.255       .  S
In222       O230   2.239       .  S
In222       O231   2.231       .  S
In222       O234   2.229       .  S
C223        O229   1.264       .  A
C223        O231   1.259       .  A
C223        C998   1.466       .  S
O224        C232   1.259       .  A
O225        C232   1.261       .  A
C226        O233   1.256       .  A
C226        O227   1.260       .  A
C226       C1037   1.470       .  S
C228        O230   1.264       .  A
C228        O234   1.261       .  A
C228       C1016   1.463       .  S
C232        C980   1.468       .  S
In235       O237   2.253       .  S
In235       O238   2.250       .  S
In235       O246   2.237       .  S
In235       O240   2.264       .  S
In235       O242   2.252       .  S
In235       O243   2.248       .  S
In235       O244   2.228       .  S
In235       O247   2.253       .  S
C236        O242   1.264       .  A
C236        O244   1.260       .  A
C236        C983   1.467       .  S
O237        C245   1.262       .  A
O238        C245   1.261       .  A
C239        O246   1.257       .  A
C239        O240   1.259       .  A
C239        C947   1.466       .  S
C241        O243   1.259       .  A
C241        O247   1.258       .  A
C241       C2765   1.468   1_554  S
C245        C965   1.473       .  S
In248       O251   2.243       .  S
In248       O259   2.271       .  S
In248       O253   2.233       .  S
In248       O256   2.260       .  S
In248       O260   2.237       .  S
In248      O2014   2.227   1_554  S
In248      O2019   2.266   1_554  S
In248      O2021   2.230       .  S
C249        O255   1.264       .  A
C249        O257   1.260       .  A
C249        C929   1.472       .  S
O250      In2012   2.244       .  S
O250        C258   1.261       .  A
O251       C2022   1.265       .  A
C252        O259   1.259       .  A
C252        O253   1.255       .  A
C252        C944   1.465       .  S
C254        O256   1.261       .  A
C254        O260   1.257       .  A
C254        C908   1.468       .  S
O255      In2012   2.259       .  S
O257      In2012   2.237       .  S
C258       O2015   1.263       .  A
C258       C1271   1.469       .  S
In261       O263   2.251       .  S
In261       O264   2.264       .  S
In261       O272   2.239       .  S
In261       O266   2.265       .  S
In261       O268   2.254       .  S
In261       O269   2.243       .  S
In261       O270   2.224       .  S
In261       O273   2.252       .  S
C262        O268   1.265       .  A
C262        O270   1.261       .  A
C262        C911   1.467       .  S
O263        C271   1.258       .  A
O264        C271   1.260       .  A
C265        O272   1.257       .  A
C265        O266   1.260       .  A
C265        C890   1.468       .  S
C267        O269   1.263       .  A
C267        O273   1.261       .  A
C267       C1325   1.470       .  S
C271        C926   1.474       .  S
In274       O276   2.245       .  S
In274       O277   2.241       .  S
In274       O285   2.249       .  S
In274       O279   2.263       .  S
In274       O281   2.264       .  S
In274       O282   2.256       .  S
In274       O283   2.229       .  S
In274       O286   2.223       .  S
C275        O281   1.265       .  A
C275        O283   1.260       .  A
C275        C854   1.471       .  S
O276        C284   1.258       .  A
O277        C284   1.260       .  A
C278        O285   1.255       .  A
C278        O279   1.258       .  A
C278        C893   1.468       .  S
C280        O282   1.263       .  A
C280        O286   1.261       .  A
C280        C872   1.465       .  S
C284        C836   1.464       .  S
In287       O290   2.243       .  S
In287       O298   2.241       .  S
In287       O292   2.275       .  S
In287       O295   2.243       .  S
In287       O299   2.246       .  S
In287      O2053   2.234   1_554  S
In287      O2058   2.253   1_554  S
In287      O2060   2.234   1_554  S
C288        O294   1.265       .  A
C288        O296   1.261       .  A
C288       C1199   1.463       .  S
O289      In2051   2.234       .  S
O289        C297   1.261       .  A
O290       C2061   1.264       .  A
C291        O298   1.257       .  A
C291        O292   1.262       .  A
C291        C821   1.472       .  S
C293        O295   1.258       .  A
C293        O299   1.260       .  A
C293       C1181   1.465       .  S
O294      In2051   2.246       .  S
O296      In2051   2.221       .  S
C297       O2054   1.263       .  A
C297       C1559   1.466       .  S
In300       O302   2.247       .  S
In300       O303   2.251       .  S
In300       O311   2.230       .  S
In300       O305   2.261       .  S
In300       O307   2.258       .  S
In300       O308   2.264       .  S
In300       O309   2.223       .  S
In300       O312   2.242       .  S
C301        O307   1.263       .  A
C301        O309   1.260       .  A
C301        C839   1.466       .  S
O302        C310   1.260       .  A
O303        C310   1.263       .  A
C304        O311   1.256       .  A
C304        O305   1.259       .  A
C304        C818   1.465       .  S
C306        O308   1.261       .  A
C306        O312   1.258       .  A
C306        C857   1.471   1_554  S
C310        C800   1.471       .  S
In313       O315   2.250       .  S
In313       O316   2.254       .  S
In313       O324   2.248       .  S
In313       O318   2.257       .  S
In313       O320   2.256       .  S
In313       O321   2.233       .  S
In313       O322   2.224       .  S
In313       O325   2.251       .  S
C314        O320   1.264       .  A
C314        O322   1.260       .  A
C314        C764   1.466       .  S
O315        C323   1.258       .  A
O316        C323   1.261       .  A
C317        O324   1.256       .  A
C317        O318   1.260       .  A
C317        C782   1.468       .  S
C319        O321   1.263       .  A
C319        O325   1.262       .  A
C319        C875   1.468       .  S
C323       C2510   1.471       .  S
In326       O328   2.256       .  S
In326       O329   2.246       .  S
In326       O337   2.243       .  S
In326       O331   2.261       .  S
In326       O334   2.244       .  S
In326      O2097   2.246       .  S
In326      O2099   2.226       .  S
In326      O2102   2.241       .  S
C327        O333   1.265       .  A
C327        O335   1.260       .  A
C327        C728   1.466       .  S
O328        C336   1.259       .  A
O329        C336   1.260       .  A
C330        O337   1.257       .  A
C330        O331   1.260       .  A
C330        C785   1.469       .  S
C332        O338   1.261       .  A
C332       O2098   1.264   1_554  A
C332       C1361   1.468       .  S
O333      In2090   2.254   1_554  S
O334       C2096   1.264       .  A
O335      In2090   2.223   1_554  S
C336        C713   1.469       .  S
O338      In2090   2.245   1_554  S
In339       O341   2.251       .  S
In339       O342   2.252       .  S
In339       O350   2.257       .  S
In339       O344   2.275       .  S
In339       O346   2.260       .  S
In339       O347   2.263       .  S
In339       O348   2.236       .  S
In339       O351   2.257       .  S
C340        O346   1.265       .  A
C340        O348   1.260       .  A
C340        C659   1.471       .  S
O341        C349   1.263       .  A
O342        C349   1.260       .  A
C343        O350   1.257       .  A
C343        O344   1.259       .  A
C343        C695   1.476       .  S
C345        O347   1.260       .  A
C345        O351   1.259       .  A
C345        C674   1.475       .  S
C349       C1574   1.472       .  S
In352       O354   2.231       .  S
In352       O355   2.259       .  S
In352       O363   2.270       .  S
In352       O357   2.247       .  S
In352       O359   2.264       .  S
In352       O360   2.257       .  S
In352       O361   2.226       .  S
In352       O364   2.236       .  S
C353        O359   1.264       .  A
C353        O361   1.259       .  A
C353        C749   1.469       .  S
O354        C362   1.261       .  A
O355        C362   1.264       .  A
C356        O363   1.258       .  A
C356        O357   1.255       .  A
C356        C692   1.471       .  S
C358        O360   1.261       .  A
C358        O364   1.257       .  A
C358        C767   1.466       .  S
C362        C803   1.469       .  S
In365       O367   2.245       .  S
In365       O368   2.237       .  S
In365       O376   2.252       .  S
In365       O370   2.272       .  S
In365       O372   2.262       .  S
In365       O373   2.253       .  S
In365       O374   2.225       .  S
In365       O377   2.244       .  S
C366        O372   1.265       .  A
C366        O374   1.259       .  A
C366        C710   1.468       .  S
O367        C375   1.262       .  A
O368        C375   1.262       .  A
C369        O376   1.256       .  A
C369        O370   1.260       .  A
C369        C638   1.475       .  S
C371        O373   1.260       .  A
C371        O377   1.258       .  A
C371        C731   1.467       .  S
C375       C1487   1.467       .  S
In378       O380   2.246       .  S
In378       O381   2.249       .  S
In378       O389   2.250       .  S
In378       O383   2.277       .  S
In378       O385   2.267       .  S
In378       O386   2.244       .  S
In378       O387   2.244       .  S
In378       O390   2.264       .  S
C379        O385   1.264       .  A
C379        O387   1.260       .  A
C379        C602   1.475       .  S
O380        C388   1.262       .  A
O381        C388   1.262       .  A
C382        O389   1.256       .  A
C382        O383   1.261       .  A
C382        C641   1.475       .  S
C384        O386   1.259       .  A
C384        O390   1.260       .  A
C384        C623   1.471       .  S
C388       C1106   1.471       .  S
In391       O393   2.249       .  S
In391       O394   2.262       .  S
In391       O402   2.258       .  S
In391       O396   2.281       .  S
In391       O399   2.255       .  S
In391      O2162   2.264       .  S
In391      O2164   2.228       .  S
In391      O2167   2.259       .  S
C392        O398   1.266       .  A
C392        O400   1.261       .  A
C392        C566   1.469       .  S
O393        C401   1.256       .  A
O394        C401   1.261       .  A
C395        O402   1.257       .  A
C395        O396   1.259       .  A
C395        C584   1.478       .  S
C397        O403   1.261       .  A
C397       O2163   1.263   1_554  A
C397       C1757   1.470       .  S
O398      In2155   2.248   1_554  S
O399       C2161   1.263       .  A
O400      In2155   2.235   1_554  S
C401        C548   1.470       .  S
O403      In2155   2.244   1_554  S
In404       O406   2.239       .  S
In404       O407   2.253       .  S
In404       O415   2.249       .  S
In404       O409   2.277       .  S
In404       O411   2.265       .  S
In404       O412   2.240       .  S
In404       O413   2.226       .  S
In404       O416   2.237       .  S
C405        O411   1.265       .  A
C405        O413   1.259       .  A
C405        C620   1.469       .  S
O406        C414   1.257       .  A
O407        C414   1.261       .  A
C408        O415   1.255       .  A
C408        O409   1.260       .  A
C408        C587   1.475       .  S
C410        O412   1.263       .  A
C410        O416   1.262       .  A
C410       C1124   1.466       .  S
C414       C2369   1.466       .  S
In417       O419   2.223       .  S
In417       O420   2.279       .  S
In417       O428   2.263       .  S
In417       O422   2.258       .  S
In417       O425   2.251       .  S
In417      O2188   2.260       .  S
In417      O2190   2.221       .  S
In417      O2193   2.233       .  S
C418        O424   1.264       .  A
C418        O426   1.260       .  A
C418        C677   1.476       .  S
O419        C427   1.256       .  A
O420        C427   1.263       .  A
C421        O428   1.257       .  A
C421        O422   1.256       .  A
C421        C530   1.471       .  S
C423        O429   1.262   1_556  A
C423       O2189   1.264       .  A
C423       C1376   1.470   1_556  S
O424      In2181   2.269   1_554  S
O425       C2187   1.264       .  A
O426      In2181   2.244   1_554  S
C427        C656   1.470       .  S
O429      In2181   2.232   1_554  S
In430       O432   2.244       .  S
In430       O433   2.240       .  S
In430       O441   2.236       .  S
In430       O435   2.273       .  S
In430       O437   2.245       .  S
In430       O438   2.252       .  S
In430       O439   2.232       .  S
In430       O442   2.241       .  S
C431        O437   1.264       .  A
C431        O439   1.261       .  A
C431        C512   1.467       .  S
O432        C440   1.259       .  A
O433        C440   1.259       .  A
C434        O441   1.256       .  A
C434        O435   1.260       .  A
C434        C533   1.470       .  S
C436        O438   1.261       .  A
C436        O442   1.260       .  A
C436       C1019   1.467       .  S
C440       C2258   1.463       .  S
In443       O445   2.249       .  S
In443       O446   2.248       .  S
In443       O454   2.235       .  S
In443       O448   2.271       .  S
In443       O450   2.265       .  S
In443       O451   2.248       .  S
In443       O452   2.205       .  S
In443       O455   2.254       .  S
C444        O450   1.266       .  A
C444        O452   1.259       .  A
C444        C497   1.464       .  S
O445        C453   1.262       .  A
O446        C453   1.263       .  A
C447        O454   1.256       .  A
C447        O448   1.261       .  A
C447        C476   1.470       .  S
C449        O451   1.260       .  A
C449        O455   1.259       .  A
C449        C515   1.469       .  S
C453        C962   1.472       .  S
In456       O458   2.253       .  S
In456       O459   2.255       .  S
In456       O467   2.267       .  S
In456       O461   2.259       .  S
In456       O463   2.272       .  S
In456       O464   2.264       .  S
In456       O465   2.228       .  S
In456       O468   2.245       .  S
C457        O463   1.263       .  A
C457        O465   1.259       .  A
C457        C551   1.471       .  S
O458        C466   1.260       .  A
O459        C466   1.260       .  A
C460        O467   1.257       .  A
C460        O461   1.257       .  A
C460        C479   1.473       .  S
C462        O464   1.261       .  A
C462        O468   1.258       .  A
C462        C569   1.471       .  S
C466       C1235   1.472       .  S
C469        C474   1.385       .  A
C469        C470   1.404       .  A
C469        N475   1.346       .  A
C470        C471   1.404       .  A
C470        H481   1.082       .  S
C471        C480   1.378       .  A
C471        C472   1.385       .  A
C472        C473   1.404       .  A
C472        N478   1.345       .  A
C473        C474   1.404       .  A
C473        H482   1.082       .  S
C474        C477   1.376       .  A
N475        C476   1.355       .  A
N475        H485   1.044       .  S
C476        C477   1.395       .  A
C477        H483   1.082       .  S
N478        C479   1.356       .  A
N478        H486   1.045       .  S
C479        C480   1.394       .  A
C480        H484   1.082       .  S
C487        C492   1.386       .  A
C487        C488   1.397       .  A
C487        N493   1.340       .  A
C488        C489   1.397       .  A
C488        H499   1.083       .  S
C489        C498   1.368       .  A
C489        C490   1.385       .  A
C490        C491   1.404       .  A
C490        N496   1.347       .  A
C491        C492   1.405       .  A
C491        H500   1.082       .  S
C492        C495   1.378       .  A
N493        C494   1.352       .  A
N493        H503   1.045       .  S
C494       C2204   1.462   1_554  S
C494        C495   1.395       .  A
C495        H501   1.082   1_554  S
N496        C497   1.356       .  A
N496        H504   1.044       .  S
C497        C498   1.391       .  A
C498        H502   1.083       .  S
C505        C510   1.385       .  A
C505        C506   1.404       .  A
C505        N511   1.344       .  A
C506        C507   1.403       .  A
C506        H517   1.082       .  S
C507        C516   1.379       .  A
C507        C508   1.385       .  A
C508        C509   1.402       .  A
C508        N514   1.343       .  A
C509        C510   1.401       .  A
C509        H518   1.082       .  S
C510        C513   1.376       .  A
N511        C512   1.355       .  A
N511        H521   1.045       .  S
C512        C513   1.394       .  A
C513        H519   1.083       .  S
N514        C515   1.354       .  A
N514        H522   1.044       .  S
C515        C516   1.395       .  A
C516        H520   1.082       .  S
C523        C528   1.384       .  A
C523        C524   1.406       .  A
C523        N529   1.344       .  A
C524        C525   1.405       .  A
C524        H535   1.082       .  S
C525        C534   1.383       .  A
C525        C526   1.384       .  A
C526        C527   1.403       .  A
C526        N532   1.341       .  A
C527        C528   1.401       .  A
C527        H536   1.082       .  S
C528        C531   1.379       .  A
N529        C530   1.356       .  A
N529        H539   1.044       .  S
C530        C531   1.394       .  A
C531        H537   1.082       .  S
N532        C533   1.354       .  A
N532        H540   1.044       .  S
C533        C534   1.396       .  A
C534        H538   1.082       .  S
C541        C546   1.385       .  A
C541        C542   1.400       .  A
C541        N547   1.343       .  A
C542        C543   1.400       .  A
C542        H553   1.082       .  S
C543        C552   1.373       .  A
C543        C544   1.385       .  A
C544        C545   1.407       .  A
C544        N550   1.348       .  A
C545        C546   1.407       .  A
C545        H554   1.082       .  S
C546        C549   1.380       .  A
N547        C548   1.353       .  A
N547        H557   1.045       .  S
C548        C549   1.397       .  A
C549        H555   1.082       .  S
N550        C551   1.357       .  A
N550        H558   1.045       .  S
C551        C552   1.393       .  A
C552        H556   1.082       .  S
C559        C564   1.385       .  A
C559        C560   1.406       .  A
C559        N565   1.344       .  A
C560        C561   1.405       .  A
C560        H571   1.082       .  S
C561        C570   1.382       .  A
C561        C562   1.385       .  A
C562        C563   1.403       .  A
C562        N568   1.342       .  A
C563        C564   1.401       .  A
C563        H572   1.082       .  S
C564        C567   1.378       .  A
N565        C566   1.357       .  A
N565        H575   1.045       .  S
C566        C567   1.392       .  A
C567        H573   1.082       .  S
N568        C569   1.355       .  A
N568        H576   1.045       .  S
C569        C570   1.396       .  A
C570        H574   1.082       .  S
C577        C582   1.384       .  A
C577        C578   1.409       .  A
C577        N583   1.348       .  A
C578        C579   1.408       .  A
C578        H589   1.082       .  S
C579        C588   1.384       .  A
C579        C580   1.384       .  A
C580        C581   1.403       .  A
C580        N586   1.343       .  A
C581        C582   1.402       .  A
C581        H590   1.082       .  S
C582        C585   1.378       .  A
N583        C584   1.358       .  A
N583        H593   1.045       .  S
C584        C585   1.395       .  A
C585        H591   1.082       .  S
N586        C587   1.355       .  A
N586        H594   1.044       .  S
C587        C588   1.397       .  A
C588        H592   1.082       .  S
C595        C600   1.384       .  A
C595        C596   1.405       .  A
C595        N601   1.344       .  A
C596        C597   1.403       .  A
C596        H607   1.082       .  S
C597        C606   1.381       .  A
C597        C598   1.384       .  A
C598        C599   1.406       .  A
C598       N2368   1.344       .  A
C599        C600   1.405       .  A
C599        H608   1.082       .  S
C600        C603   1.383       .  A
N601        C602   1.356       .  A
N601        H611   1.045       .  S
C602        C603   1.396       .  A
C603        H609   1.082       .  S
N604       C2362   1.343       .  A
N604       C2369   1.356       .  A
N604        H612   1.045       .  S
C605       C2178   1.472   1_554  S
C605        C606   1.395       .  A
C605       N2368   1.357       .  A
C606        H610   1.082       .  S
C613        C618   1.385       .  A
C613        C614   1.406       .  A
C613        N619   1.346       .  A
C614        C615   1.406       .  A
C614        H625   1.082       .  S
C615        C624   1.382       .  A
C615        C616   1.385       .  A
C616        C617   1.401       .  A
C616        N622   1.342       .  A
C617        C618   1.400       .  A
C617        H626   1.082       .  S
C618        C621   1.374       .  A
N619        C620   1.356       .  A
N619        H629   1.044       .  S
C620        C621   1.393       .  A
C621        H627   1.083       .  S
N622        C623   1.354       .  A
N622        H630   1.045       .  S
C623        C624   1.397       .  A
C624        H628   1.082       .  S
C631        C636   1.384       .  A
C631        C632   1.405       .  A
C631        N637   1.344       .  A
C632        C633   1.404       .  A
C632        H643   1.082       .  S
C633        C642   1.379       .  A
C633        C634   1.384       .  A
C634        C635   1.406       .  A
C634        N640   1.347       .  A
C635        C636   1.405       .  A
C635        H644   1.082       .  S
C636        C639   1.382       .  A
N637        C638   1.356       .  A
N637        H647   1.044       .  S
C638        C639   1.396       .  A
C639        H645   1.082       .  S
N640        C641   1.356       .  A
N640        H648   1.045       .  S
C641        C642   1.396       .  A
C642        H646   1.082       .  S
C649        C654   1.385       .  A
C649        C650   1.405       .  A
C649        N655   1.348       .  A
C650        C651   1.406       .  A
C650        H661   1.082       .  S
C651        C660   1.378       .  A
C651        C652   1.385       .  A
C652        C653   1.401       .  A
C652        N658   1.345       .  A
C653        C654   1.401       .  A
C653        H662   1.082       .  S
C654        C657   1.373       .  A
N655        C656   1.356       .  A
N655        H665   1.045       .  S
C656        C657   1.393       .  A
C657        H663   1.083       .  S
N658        C659   1.354       .  A
N658        H666   1.044       .  S
C659        C660   1.396       .  A
C660        H664   1.082       .  S
C667        C672   1.385       .  A
C667        C668   1.405       .  A
C667        N673   1.346       .  A
C668        C669   1.405       .  A
C668        H679   1.082       .  S
C669        C678   1.379       .  A
C669        C670   1.384       .  A
C670        C671   1.405       .  A
C670        N676   1.347       .  A
C671        C672   1.405       .  A
C671        H680   1.082       .  S
C672        C675   1.380       .  A
N673        C674   1.356       .  A
N673        H683   1.045       .  S
C674        C675   1.396       .  A
C675        H681   1.082       .  S
N676        C677   1.356       .  A
N676        H684   1.045       .  S
C677        C678   1.396       .  A
C678        H682   1.082       .  S
C685        C690   1.384       .  A
C685        C686   1.403       .  A
C685        N691   1.342       .  A
C686        C687   1.402       .  A
C686        H697   1.082       .  S
C687        C696   1.378       .  A
C687        C688   1.384       .  A
C688        C689   1.407       .  A
C688        N694   1.347       .  A
C689        C690   1.406       .  A
C689        H698   1.082       .  S
C690        C693   1.382       .  A
N691        C692   1.355       .  A
N691        H701   1.045       .  S
C692        C693   1.396       .  A
C693        H699   1.082       .  S
N694        C695   1.357       .  A
N694        H702   1.045       .  S
C695        C696   1.395       .  A
C696        H700   1.082       .  S
C703        C708   1.385       .  A
C703        C704   1.406       .  A
C703        N709   1.346       .  A
C704        C705   1.405       .  A
C704        H715   1.082       .  S
C705        C714   1.381       .  A
C705        C706   1.385       .  A
C706        C707   1.401       .  A
C706        N712   1.342       .  A
C707        C708   1.400       .  A
C707        H716   1.082       .  S
C708        C711   1.374       .  A
N709        C710   1.355       .  A
N709        H719   1.045       .  S
C710        C711   1.393       .  A
C711        H717   1.083       .  S
N712        C713   1.353       .  A
N712        H720   1.045       .  S
C713        C714   1.397       .  A
C714        H718   1.082       .  S
C721        C726   1.385       .  A
C721        C722   1.402       .  A
C721        N727   1.340       .  A
C722        C723   1.400       .  A
C722        H733   1.082       .  S
C723        C732   1.377       .  A
C723        C724   1.385       .  A
C724        C725   1.404       .  A
C724        N730   1.343       .  A
C725        C726   1.403       .  A
C725        H734   1.082       .  S
C726        C729   1.380       .  A
N727        C728   1.354       .  A
N727        H737   1.044       .  S
C728        C729   1.394       .  A
C729        H735   1.082       .  S
N730        C731   1.356       .  A
N730        H738   1.045       .  S
C731        C732   1.393       .  A
C732        H736   1.082       .  S
C739        C744   1.384       .  A
C739        C740   1.406       .  A
C739        N745   1.345       .  A
C740        C741   1.405       .  A
C740        H751   1.082       .  S
C741        C750   1.383       .  A
C741        C742   1.385       .  A
C742        C743   1.400       .  A
C742        N748   1.340       .  A
C743        C744   1.398       .  A
C743        H752   1.082       .  S
C744        C747   1.375       .  A
N745        C746   1.357       .  A
N745        H755   1.045       .  S
C746       C2087   1.467   1_554  S
C746        C747   1.392       .  A
C747        H753   1.082       .  S
N748        C749   1.354       .  A
N748        H756   1.045       .  S
C749        C750   1.396       .  A
C750        H754   1.082       .  S
C757        C762   1.385       .  A
C757        C758   1.403       .  A
C757        N763   1.345       .  A
C758        C759   1.403       .  A
C758        H769   1.082       .  S
C759        C768   1.376       .  A
C759        C760   1.385       .  A
C760        C761   1.401       .  A
C760        N766   1.343       .  A
C761        C762   1.401       .  A
C761        H770   1.082       .  S
C762        C765   1.373       .  A
N763        C764   1.355       .  A
N763        H773   1.045       .  S
C764        C765   1.393       .  A
C765        H771   1.082       .  S
N766        C767   1.353       .  A
N766        H774   1.045       .  S
C767        C768   1.395       .  A
C768        H772   1.082       .  S
C775        C780   1.385       .  A
C775        C776   1.404       .  A
C775        N781   1.344       .  A
C776        C777   1.403       .  A
C776        H787   1.082       .  S
C777        C786   1.378       .  A
C777        C778   1.385       .  A
C778        C779   1.403       .  A
C778        N784   1.344       .  A
C779        C780   1.402       .  A
C779        H788   1.082       .  S
C780        C783   1.378       .  A
N781        C782   1.356       .  A
N781        H791   1.044       .  S
C782        C783   1.393       .  A
C783        H789   1.082       .  S
N784        C785   1.354       .  A
N784        H792   1.044       .  S
C785        C786   1.395       .  A
C786        H790   1.082       .  S
C793        C798   1.385       .  A
C793        C794   1.406       .  A
C793        N799   1.345       .  A
C794        C795   1.405   1_655  A
C794        H805   1.082       .  S
C795        C804   1.383       .  A
C795        C796   1.385       .  A
C796        C797   1.402       .  A
C796        N802   1.341       .  A
C797        C798   1.400   1_455  A
C797        H806   1.082       .  S
C798        C801   1.378       .  A
N799        C800   1.357       .  A
N799        H809   1.045       .  S
C800        C801   1.393       .  A
C801        H807   1.082       .  S
N802        C803   1.354       .  A
N802        H810   1.045       .  S
C803        C804   1.396       .  A
C804        H808   1.082       .  S
C811        C816   1.385       .  A
C811        C812   1.407       .  A
C811        N817   1.346       .  A
C812        C813   1.407       .  A
C812        H823   1.082       .  S
C813        C822   1.384       .  A
C813        C814   1.385       .  A
C814        C815   1.400       .  A
C814        N820   1.341       .  A
C815        C816   1.398       .  A
C815        H824   1.082       .  S
C816        C819   1.373       .  A
N817        C818   1.356       .  A
N817        H827   1.044       .  S
C818        C819   1.391       .  A
C819        H825   1.083       .  S
N820        C821   1.354       .  A
N820        H828   1.045       .  S
C821        C822   1.397       .  A
C822        H826   1.082       .  S
C829        C834   1.385       .  A
C829        C830   1.406       .  A
C829        N835   1.344       .  A
C830        C831   1.405       .  A
C830        H841   1.082       .  S
C831        C840   1.383       .  A
C831        C832   1.385       .  A
C832        C833   1.398       .  A
C832        N838   1.338       .  A
C833        C834   1.396       .  A
C833        H842   1.082       .  S
C834        C837   1.373       .  A
N835        C836   1.357       .  A
N835        H845   1.045       .  S
C836        C837   1.390       .  A
C837        H843   1.082       .  S
N838        C839   1.352       .  A
N838        H846   1.046       .  S
C839        C840   1.397       .  A
C840        H844   1.082       .  S
C847        C852   1.384       .  A
C847        C848   1.404       .  A
C847        N853   1.342       .  A
C848        C849   1.403       .  A
C848        H859   1.082       .  S
C849        C858   1.382       .  A
C849        C850   1.384       .  A
C850        C851   1.407       .  A
C850       N2620   1.345       .  A
C851        C852   1.405       .  A
C851        H860   1.082       .  S
C852        C855   1.383       .  A
N853        C854   1.355       .  A
N853        H863   1.045       .  S
C854        C855   1.396       .  A
C855        H861   1.082       .  S
N856        C857   1.354       .  A
N856       C2614   1.342       .  A
N856        H864   1.045   1_556  S
C857       C2622   1.396       .  A
C858       C2621   1.396       .  A
C858        H862   1.082       .  S
C865        C870   1.385       .  A
C865        C866   1.407   1_655  A
C865        N871   1.347       .  A
C866        C867   1.407       .  A
C866        H877   1.082       .  S
C867        C876   1.382       .  A
C867        C868   1.385       .  A
C868        C869   1.398   1_455  A
C868        N874   1.340       .  A
C869        C870   1.397       .  A
C869        H878   1.082       .  S
C870        C873   1.371       .  A
N871        C872   1.357       .  A
N871        H881   1.045       .  S
C872        C873   1.390       .  A
C873        H879   1.083       .  S
N874        C875   1.352       .  A
N874        H882   1.045       .  S
C875        C876   1.398       .  A
C876        H880   1.082       .  S
C883        C888   1.385       .  A
C883        C884   1.402       .  A
C883        N889   1.341       .  A
C884        C885   1.401       .  A
C884        H895   1.082       .  S
C885        C894   1.377       .  A
C885        C886   1.385       .  A
C886        C887   1.405       .  A
C886        N892   1.344       .  A
C887        C888   1.404       .  A
C887        H896   1.082       .  S
C888        C891   1.381       .  A
N889        C890   1.354       .  A
N889        H899   1.045       .  S
C890        C891   1.395       .  A
C891        H897   1.082       .  S
N892        C893   1.355       .  A
N892        H900   1.045       .  S
C893        C894   1.394       .  A
C894        H898   1.083       .  S
C901        C906   1.385       .  A
C901        C902   1.404       .  A
C901        N907   1.342       .  A
C902        C903   1.402       .  A
C902        H913   1.082       .  S
C903        C912   1.381       .  A
C903        C904   1.385       .  A
C904        C905   1.403       .  A
C904        N910   1.341       .  A
C905        C906   1.401       .  A
C905        H914   1.082       .  S
C906        C909   1.380       .  A
N907        C908   1.355       .  A
N907        H917   1.045       .  S
C908        C909   1.394       .  A
C909        H915   1.082       .  S
N910        C911   1.355       .  A
N910        H918   1.045       .  S
C911        C912   1.395       .  A
C912        H916   1.082       .  S
C919        C924   1.385       .  A
C919        C920   1.403       .  A
C919        N925   1.345       .  A
C920        C921   1.403       .  A
C920        H931   1.082       .  S
C921        C930   1.377       .  A
C921        C922   1.385       .  A
C922        C923   1.405       .  A
C922        N928   1.346       .  A
C923        C924   1.405       .  A
C923        H932   1.082       .  S
C924        C927   1.380       .  A
N925        C926   1.355       .  A
N925        H935   1.044       .  S
C926        C927   1.396       .  A
C927        H933   1.082       .  S
N928        C929   1.356       .  A
N928        H936   1.045       .  S
C929        C930   1.395       .  A
C930        H934   1.082       .  S
C937        C942   1.385       .  A
C937        C938   1.406       .  A
C937        N943   1.346       .  A
C938        C939   1.406       .  A
C938        H949   1.082       .  S
C939        C948   1.381       .  A
C939        C940   1.385       .  A
C940        C941   1.398       .  A
C940        N946   1.339       .  A
C941        C942   1.397       .  A
C941       H2714   1.083       .  S
C942        C945   1.371       .  A
N943        C944   1.356       .  A
N943        H953   1.044       .  S
C944        C945   1.391       .  A
C945       H2715   1.083       .  S
N946        C947   1.353       .  A
N946        H954   1.045       .  S
C947        C948   1.396       .  A
C948        H952   1.082       .  S
H950       C2705   1.082       .  S
H951       C2709   1.082       .  S
C955        C960   1.385       .  A
C955        C956   1.404       .  A
C955        N961   1.345       .  A
C956        C957   1.404       .  A
C956        H967   1.082       .  S
C957        C966   1.380       .  A
C957        C958   1.385       .  A
C958        C959   1.405       .  A
C958        N964   1.345       .  A
C959        C960   1.404       .  A
C959        H968   1.082       .  S
C960        C963   1.380       .  A
N961        C962   1.355       .  A
N961        H971   1.045       .  S
C962        C963   1.395       .  A
C963        H969   1.082       .  S
N964        C965   1.356       .  A
N964        H972   1.045       .  S
C965        C966   1.395       .  A
C966        H970   1.082       .  S
C973        C978   1.385       .  A
C973        C974   1.403       .  A
C973        N979   1.344       .  A
C974        C975   1.402       .  A
C974        H985   1.082       .  S
C975        C984   1.376       .  A
C975        C976   1.385       .  A
C976        C977   1.403       .  A
C976        N982   1.344       .  A
C977        C978   1.403       .  A
C977        H986   1.082       .  S
C978        C981   1.376       .  A
N979        C980   1.355       .  A
N979        H989   1.045       .  S
C980        C981   1.394       .  A
C981        H987   1.082       .  S
N982        C983   1.355       .  A
N982        H990   1.045       .  S
C983        C984   1.394       .  A
C984        H988   1.082       .  S
C991        C996   1.385       .  A
C991        C992   1.402       .  A
C991        N997   1.341       .  A
C992        C993   1.400       .  A
C992       H1003   1.082       .  S
C993       C1002   1.376       .  A
C993        C994   1.385       .  A
C994        C995   1.403       .  A
C994       N2764   1.342       .  A
C995        C996   1.402       .  A
C995       H1004   1.082       .  S
C996        C999   1.379       .  A
N997        C998   1.355       .  A
N997       H1007   1.044       .  S
C998        C999   1.394       .  A
C999       H1005   1.082       .  S
N1000      C2758   1.344       .  A
N1000      C2765   1.356       .  A
N1000      H1008   1.045   1_556  S
C1001      C2005   1.464       .  S
C1001      C1002   1.393       .  A
C1001      N2764   1.355       .  A
C1002      H1006   1.082       .  S
C1009      C1014   1.385       .  A
C1009      C1010   1.404       .  A
C1009      N1015   1.342       .  A
C1010      C1011   1.402       .  A
C1010      H1021   1.082       .  S
C1011      C1020   1.379       .  A
C1011      C1012   1.385       .  A
C1012      C1013   1.401       .  A
C1012      N1018   1.341       .  A
C1013      C1014   1.400       .  A
C1013      H1022   1.082       .  S
C1014      C1017   1.376       .  A
N1015      C1016   1.355       .  A
N1015      H1025   1.044       .  S
C1016      C1017   1.392       .  A
C1017      H1023   1.082       .  S
N1018      C1019   1.354       .  A
N1018      H1026   1.044       .  S
C1019      C1020   1.395       .  A
C1020      H1024   1.082       .  S
C1027      C1032   1.384       .  A
C1027      C1028   1.401       .  A
C1027      N1033   1.341       .  A
C1028      C1029   1.399       .  A
C1028      H1039   1.082       .  S
C1029      C1038   1.375       .  A
C1029      C1030   1.384       .  A
C1030      C1031   1.408       .  A
C1030      N1036   1.347       .  A
C1031      C1032   1.408       .  A
C1031      H1040   1.082       .  S
C1032      C1035   1.386       .  A
N1033      C1034   1.354       .  A
N1033      H1043   1.044       .  S
C1034      C1035   1.399       .  A
C1035      H1041   1.082       .  S
N1036      C1037   1.357       .  A
N1036      H1044   1.045       .  S
C1037      C1038   1.393       .  A
C1038      H1042   1.083       .  S
C1045      C1050   1.385       .  A
C1045      C1046   1.407       .  A
C1045      N1051   1.347       .  A
C1046      C1047   1.407       .  A
C1046      H1057   1.082       .  S
C1047      C1056   1.380       .  A
C1047      C1048   1.385       .  A
C1048      C1049   1.398       .  A
C1048      N1054   1.341       .  A
C1049      C1050   1.397       .  A
C1049      H1058   1.082       .  S
C1050      C1053   1.371       .  A
N1051      C1052   1.357       .  A
N1051      H1061   1.045       .  S
C1052      C1053   1.391       .  A
C1053      H1059   1.083       .  S
N1054      C1055   1.352       .  A
N1054      H1062   1.045       .  S
C1055      C1056   1.397       .  A
C1056      H1060   1.082       .  S
C1063      C1068   1.384       .  A
C1063      C1064   1.409       .  A
C1063      N1069   1.346       .  A
C1064      C1065   1.408       .  A
C1064      H1075   1.082       .  S
C1065      C1074   1.388       .  A
C1065      C1066   1.384       .  A
C1066      C1067   1.401       .  A
C1066      N1072   1.340       .  A
C1067      C1068   1.399       .  A
C1067      H1076   1.082       .  S
C1068      C1071   1.377       .  A
N1069      C1070   1.358       .  A
N1069      H1079   1.045       .  S
C1070      C1071   1.392       .  A
C1071      H1077   1.082       .  S
N1072      C1073   1.354       .  A
N1072      H1080   1.044       .  S
C1073      C1074   1.399       .  A
C1074      H1078   1.082       .  S
C1081      C1086   1.384       .  A
C1081      C1082   1.407       .  A
C1081      N1087   1.347       .  A
C1082      C1083   1.407       .  A
C1082      H1093   1.082       .  S
C1083      C1092   1.383       .  A
C1083      C1084   1.385       .  A
C1084      C1085   1.401       .  A
C1084      N1090   1.341       .  A
C1085      C1086   1.400       .  A
C1085      H1094   1.082       .  S
C1086      C1089   1.375       .  A
N1087      C1088   1.357       .  A
N1087      H1097   1.044       .  S
C1088      C1089   1.393       .  A
C1089      H1095   1.082       .  S
N1090      C1091   1.354       .  A
N1090      H1098   1.044       .  S
C1091      C1092   1.397       .  A
C1092      H1096   1.082       .  S
C1099      C1104   1.385       .  A
C1099      C1100   1.405   1_565  A
C1099      N1105   1.345       .  A
C1100      C1101   1.404       .  A
C1100      H1111   1.082       .  S
C1101      C1110   1.380       .  A
C1101      C1102   1.385       .  A
C1102      C1103   1.404   1_545  A
C1102      N1108   1.345       .  A
C1103      C1104   1.404       .  A
C1103      H1112   1.082       .  S
C1104      C1107   1.379       .  A
N1105      C1106   1.356       .  A
N1105      H1115   1.045       .  S
C1106      C1107   1.395       .  A
C1107      H1113   1.082       .  S
N1108      C1109   1.355       .  A
N1108      H1116   1.045       .  S
C1109      C1110   1.395       .  A
C1110      H1114   1.082       .  S
C1117      C1122   1.385       .  A
C1117      C1118   1.403   1_565  A
C1117      N1123   1.343       .  A
C1118      C1119   1.402       .  A
C1118      H1129   1.082       .  S
C1119      C1128   1.377       .  A
C1119      C1120   1.385       .  A
C1120      C1121   1.403   1_545  A
C1120      N1126   1.344       .  A
C1121      C1122   1.402       .  A
C1121      H1130   1.082       .  S
C1122      C1125   1.377       .  A
N1123      C1124   1.354       .  A
N1123      H1133   1.045       .  S
C1124      C1125   1.394       .  A
C1125      H1131   1.082       .  S
N1126      C1127   1.355       .  A
N1126      H1134   1.045       .  S
C1127      C1128   1.395       .  A
C1128      H1132   1.082       .  S
C1135      C1140   1.385       .  A
C1135      C1136   1.403       .  A
C1135      N1141   1.344       .  A
C1136      C1137   1.403       .  A
C1136      H1147   1.082       .  S
C1137      C1138   1.385       .  A
C1137      C2910   1.377       .  A
C1138      C1139   1.401       .  A
C1138      N1144   1.342       .  A
C1139      C1140   1.400       .  A
C1139      H1148   1.082       .  S
C1140      C1143   1.374       .  A
N1141      C1142   1.354       .  A
N1141      H1151   1.044       .  S
C1142      C1143   1.393       .  A
C1143      H1149   1.083       .  S
N1144      C2909   1.354       .  A
N1144      H1152   1.045       .  S
C1145      C1146   1.394       .  A
C1145      N2908   1.355   1_554  A
C1146      C2901   1.378   1_554  A
C1146      H1150   1.082       .  S
C1153      C1158   1.385       .  A
C1153      C1154   1.402       .  A
C1153      N1159   1.340       .  A
C1154      C1155   1.400       .  A
C1154      H1165   1.082       .  S
C1155      C1164   1.378       .  A
C1155      C1156   1.385       .  A
C1156      C1157   1.405       .  A
C1156      N1162   1.342       .  A
C1157      C1158   1.403       .  A
C1157      H1166   1.082       .  S
C1158      C1161   1.383       .  A
N1159      C1160   1.354       .  A
N1159      H1169   1.045       .  S
C1160      C1161   1.396       .  A
C1161      H1167   1.082       .  S
N1162      C1163   1.355       .  A
N1162      H1170   1.045       .  S
C1163      C1164   1.393       .  A
C1164      H1168   1.082       .  S
C1171      C1176   1.385       .  A
C1171      C1172   1.401       .  A
C1171      N1177   1.340       .  A
C1172      C1173   1.399       .  A
C1172      H1183   1.082       .  S
C1173      C1182   1.376       .  A
C1173      C1174   1.385       .  A
C1174      C1175   1.404       .  A
C1174      N1180   1.343       .  A
C1175      C1176   1.403       .  A
C1175      H1184   1.082       .  S
C1176      C1179   1.380       .  A
N1177      C1178   1.354       .  A
N1177      H1187   1.045       .  S
C1178      C1179   1.394       .  A
C1179      H1185   1.082       .  S
N1180      C1181   1.355       .  A
N1180      H1188   1.045       .  S
C1181      C1182   1.392       .  A
C1182      H1186   1.082       .  S
C1189      C1194   1.385       .  A
C1189      C1190   1.400       .  A
C1189      N1195   1.341       .  A
C1190      C1191   1.399       .  A
C1190      H1201   1.082       .  S
C1191      C1200   1.373       .  A
C1191      C1192   1.385       .  A
C1192      C1193   1.403       .  A
C1192      N1198   1.344       .  A
C1193      C1194   1.403       .  A
C1193      H1202   1.082       .  S
C1194      C1197   1.378       .  A
N1195      C1196   1.353       .  A
N1195      H1205   1.045       .  S
C1196      C1197   1.394       .  A
C1197      H1203   1.082       .  S
N1198      C1199   1.355       .  A
N1198      H1206   1.045       .  S
C1199      C1200   1.392       .  A
C1200      H1204   1.083       .  S
C1207      C1212   1.385       .  A
C1207      C1208   1.408       .  A
C1207      N1213   1.346       .  A
C1208      C1209   1.407       .  A
C1208      H1219   1.082       .  S
C1209      C1218   1.384       .  A
C1209      C1210   1.385       .  A
C1210      C1211   1.400       .  A
C1210      N1216   1.340       .  A
C1211      C1212   1.399       .  A
C1211      H1220   1.082       .  S
C1212      C1215   1.375       .  A
N1213      C1214   1.357       .  A
N1213      H1223   1.044       .  S
C1214      C1215   1.392       .  A
C1215      H1221   1.082       .  S
N1216      C1217   1.354       .  A
N1216      H1224   1.045       .  S
C1217      C1218   1.397       .  A
C1218      H1222   1.082       .  S
C1225      C1230   1.385       .  A
C1225      C1226   1.403       .  A
C1225      N1231   1.344       .  A
C1226      C1227   1.403       .  A
C1226      H1237   1.082       .  S
C1227      C1236   1.378       .  A
C1227      C1228   1.384       .  A
C1228      C1229   1.406       .  A
C1228      N1234   1.345       .  A
C1229      C1230   1.405       .  A
C1229      H1238   1.082       .  S
C1230      C1233   1.380       .  A
N1231      C1232   1.354       .  A
N1231      H1241   1.044       .  S
C1232      C1233   1.397       .  A
C1233      H1239   1.083       .  S
N1234      C1235   1.356       .  A
N1234      H1242   1.045       .  S
C1235      C1236   1.394       .  A
C1236      H1240   1.082       .  S
C1243      C1248   1.385       .  A
C1243      C1244   1.404       .  A
C1243      N1249   1.344       .  A
C1244      C1245   1.403       .  A
C1244      H1255   1.082       .  S
C1245      C1254   1.379       .  A
C1245      C1246   1.385       .  A
C1246      C1247   1.403       .  A
C1246      N1252   1.343       .  A
C1247      C1248   1.402       .  A
C1247      H1256   1.082       .  S
C1248      C1251   1.377       .  A
N1249      C1250   1.355       .  A
N1249      H1259   1.045       .  S
C1250      C1251   1.394       .  A
C1251      H1257   1.082       .  S
N1252      C1253   1.355       .  A
N1252      H1260   1.045       .  S
C1253      C1254   1.394       .  A
C1254      H1258   1.082       .  S
C1261      C1266   1.385       .  A
C1261      C1262   1.402       .  A
C1261      N1267   1.341       .  A
C1262      C1263   1.400       .  A
C1262      H1273   1.082       .  S
C1263      C1272   1.378       .  A
C1263      C1264   1.384       .  A
C1264      C1265   1.406       .  A
C1264      N1270   1.344       .  A
C1265      C1266   1.404       .  A
C1265      H1274   1.082       .  S
C1266      C1269   1.382       .  A
N1267      C1268   1.354       .  A
N1267      H1277   1.045       .  S
C1268      C1269   1.396       .  A
C1269      H1275   1.082       .  S
N1270      C1271   1.356       .  A
N1270      H1278   1.045       .  S
C1271      C1272   1.393       .  A
C1272      H1276   1.082       .  S
C1279      C3048   1.385       .  A
C1279      C3044   1.402       .  A
C1279      N1285   1.341       .  A
C1280      C1281   1.401   1_556  A
C1280      C3043   1.403       .  A
C1280      H3055   1.082       .  S
C1281      C1290   1.380       .  A
C1281      C1282   1.385       .  A
C1282      C1283   1.402       .  A
C1282      N1288   1.340       .  A
C1283      C1284   1.400   1_554  A
C1283      H1292   1.082       .  S
C1284      C1287   1.377       .  A
C1284      C3043   1.385       .  A
N1285      C1286   1.354       .  A
N1285      H1295   1.045       .  S
C1286      C3051   1.395       .  A
C1287      C3050   1.392       .  A
C1287      H1293   1.082       .  S
N1288      C1289   1.354       .  A
N1288      H1296   1.045       .  S
C1289      C1290   1.394       .  A
C1290      H1294   1.082       .  S
H1291      C3044   1.082       .  S
C1297      C1302   1.385       .  A
C1297      C1298   1.405       .  A
C1297      N1303   1.345       .  A
C1298      C1299   1.404       .  A
C1298      H1309   1.082       .  S
C1299      C1308   1.380       .  A
C1299      C1300   1.385       .  A
C1300      C1301   1.403       .  A
C1300      N1306   1.343       .  A
C1301      C1302   1.402       .  A
C1301      H1310   1.082       .  S
C1302      C1305   1.377       .  A
N1303      C1304   1.356       .  A
N1303      H1313   1.044       .  S
C1304      C1305   1.394       .  A
C1305      H1311   1.082       .  S
N1306      C1307   1.355       .  A
N1306      H1314   1.045       .  S
C1307      C1308   1.395       .  A
C1308      H1312   1.082       .  S
C1315      C1320   1.385       .  A
C1315      C1316   1.400       .  A
C1315      N1321   1.340       .  A
C1316      C1317   1.399       .  A
C1316      H1327   1.082       .  S
C1317      C1326   1.376       .  A
C1317      C1318   1.385       .  A
C1318      C1319   1.407       .  A
C1318      N1324   1.346       .  A
C1319      C1320   1.406       .  A
C1319      H1328   1.082       .  S
C1320      C1323   1.383       .  A
N1321      C1322   1.353       .  A
N1321      H1331   1.045       .  S
C1322      C1323   1.397       .  A
C1323      H1329   1.082       .  S
N1324      C1325   1.357       .  A
N1324      H1332   1.045       .  S
C1325      C1326   1.392       .  A
C1326      H1330   1.082       .  S
C1333      C1338   1.385       .  A
C1333      C1334   1.407   1_455  A
C1333      N1339   1.348       .  A
C1334      C1335   1.407       .  A
C1334      H1345   1.082       .  S
C1335      C1344   1.383       .  A
C1335      C1336   1.385       .  A
C1336      C1337   1.399       .  A
C1336      N1342   1.340       .  A
C1337      C1338   1.398   1_655  A
C1337      H1346   1.082       .  S
C1338      C1341   1.372       .  A
N1339      C1340   1.357       .  A
N1339      H1349   1.044       .  S
C1340      C1341   1.392       .  A
C1341      H1347   1.083       .  S
N1342      C1343   1.353       .  A
N1342      H1350   1.045       .  S
C1343      C1344   1.397       .  A
C1344      H1348   1.082       .  S
C1351      C1356   1.385       .  A
C1351      C1352   1.402       .  A
C1351      N1357   1.343       .  A
C1352      C1353   1.400       .  A
C1352      H1363   1.082   1_554  S
C1353      C1362   1.376       .  A
C1353      C1354   1.385       .  A
C1354      C1355   1.405       .  A
C1354      N1360   1.345       .  A
C1355      C1356   1.405       .  A
C1355      H1364   1.082       .  S
C1356      C1359   1.380       .  A
N1357      C1358   1.354       .  A
N1357      H1367   1.044       .  S
C1358      C1359   1.396       .  A
C1359      H1365   1.082       .  S
N1360      C1361   1.356       .  A
N1360      H1368   1.044       .  S
C1361      C1362   1.392       .  A
C1362      H3130   1.082   1_554  S
H1366      C3126   1.082       .  S
C1369      C1374   1.385       .  A
C1369      C1370   1.406       .  A
C1369      N1375   1.347   1_554  A
C1370      C1371   1.405       .  A
C1370      H1381   1.082   1_554  S
C1371      C1380   1.380       .  A
C1371      C1372   1.385       .  A
C1372      C1373   1.400       .  A
C1372      N1378   1.341       .  A
C1373      C1374   1.399       .  A
C1373      H1382   1.082       .  S
C1374      C1377   1.374       .  A
N1375      C1376   1.357   1_556  A
N1375      H3149   1.044       .  S
C1376      C1377   1.392       .  A
C1377      H1383   1.082       .  S
N1378      C1379   1.353       .  A
N1378      H1386   1.045       .  S
C1379      C1380   1.396       .  A
C1380      H1384   1.082       .  S
H1385      N3139   1.045       .  S
C1387      C1392   1.385       .  A
C1387      C1388   1.400       .  A
C1387      N1393   1.341       .  A
C1388      C1389   1.399       .  A
C1388      H1399   1.082       .  S
C1389      C1398   1.374       .  A
C1389      C1390   1.385       .  A
C1390      C1391   1.406       .  A
C1390      N1396   1.347       .  A
C1391      C1392   1.405       .  A
C1391      H1400   1.082       .  S
C1392      C1395   1.381       .  A
N1393      C1394   1.353       .  A
N1393      H1403   1.045       .  S
C1394      C1395   1.396       .  A
C1395      H1401   1.082       .  S
N1396      C1397   1.356       .  A
N1396      H1404   1.044       .  S
C1397      C1398   1.393       .  A
C1398      H1402   1.083       .  S
C1405      C1410   1.385       .  A
C1405      C1406   1.403       .  A
C1405      N1411   1.343       .  A
C1406      C1407   1.402       .  A
C1406      H1417   1.082       .  S
C1407      C1416   1.377       .  A
C1407      C1408   1.385       .  A
C1408      C1409   1.406       .  A
C1408      N1414   1.346       .  A
C1409      C1410   1.405       .  A
C1409      H1418   1.082       .  S
C1410      C1413   1.381       .  A
N1411      C1412   1.355       .  A
N1411      H1421   1.045       .  S
C1412      C1413   1.397       .  A
C1413      H1419   1.082       .  S
N1414      C1415   1.356       .  A
N1414      H1422   1.045       .  S
C1415      C1416   1.394       .  A
C1416      H1420   1.083       .  S
C1423      C1428   1.385       .  A
C1423      C1424   1.403   1_556  A
C1423      N3193   1.342       .  A
C1424      C1425   1.401       .  A
C1424      H1435   1.082   1_554  S
C1425      C1434   1.377       .  A
C1425      C1426   1.385       .  A
C1426      C1427   1.405       .  A
C1426      N1432   1.345       .  A
C1427      C1428   1.405   1_554  A
C1427      H1436   1.082       .  S
C1428      C3195   1.382       .  A
N1429      C1430   1.356       .  A
N1429      C3187   1.343       .  A
N1429      H1439   1.045       .  S
C1430      C1431   1.396       .  A
C1431      C3192   1.382       .  A
C1431      H1437   1.082       .  S
N1432      C1433   1.356       .  A
N1432      H1440   1.045       .  S
C1433      C1434   1.393       .  A
C1434      H1438   1.082       .  S
C1441      C1446   1.385       .  A
C1441      C1442   1.403       .  A
C1441      N1447   1.342       .  A
C1442      C1443   1.402       .  A
C1442      H1453   1.082       .  S
C1443      C1452   1.379       .  A
C1443      C1444   1.385       .  A
C1444      C1445   1.405       .  A
C1444      N1450   1.343       .  A
C1445      C1446   1.403       .  A
C1445      H1454   1.082       .  S
C1446      C1449   1.380       .  A
N1447      C1448   1.355       .  A
N1447      H1457   1.045       .  S
C1448      C1449   1.394       .  A
C1449      H1455   1.082       .  S
N1450      C1451   1.356       .  A
N1450      H1458   1.045       .  S
C1451      C1452   1.394       .  A
C1452      H1456   1.082       .  S
C1459      C1464   1.385       .  A
C1459      C1460   1.405       .  A
C1459      N1465   1.346       .  A
C1460      C1461   1.404       .  A
C1460      H1471   1.082       .  S
C1461      C1470   1.379       .  A
C1461      C1462   1.385       .  A
C1462      C1463   1.403       .  A
C1462      N1468   1.344       .  A
C1463      C1464   1.403       .  A
C1463      H1472   1.082       .  S
C1464      C1467   1.378       .  A
N1465      C1466   1.356       .  A
N1465      H3239   1.045       .  S
C1466      C1467   1.394       .  A
C1467      H1473   1.082       .  S
N1468      C1469   1.355       .  A
N1468      H1476   1.045       .  S
C1469      C1470   1.395       .  A
C1470      H1474   1.082       .  S
H1475      N3229   1.045   1_554  S
C1477      C1482   1.385       .  A
C1477      C1478   1.403       .  A
C1477      N1483   1.343       .  A
C1478      C1479   1.402       .  A
C1478      H1489   1.082       .  S
C1479      C1488   1.379       .  A
C1479      C1480   1.385       .  A
C1480      C1481   1.403       .  A
C1480      N1486   1.342       .  A
C1481      C1482   1.402       .  A
C1481      H1490   1.082       .  S
C1482      C1485   1.378       .  A
N1483      C1484   1.355       .  A
N1483      H1493   1.045       .  S
C1484      C1485   1.394       .  A
C1485      H1491   1.083       .  S
N1486      C1487   1.354       .  A
N1486      H1494   1.045       .  S
C1487      C1488   1.395       .  A
C1488      H1492   1.082       .  S
C1495      C1500   1.385       .  A
C1495      C1496   1.405       .  A
C1495      N1501   1.346       .  A
C1496      C1497   1.405       .  A
C1496      H1507   1.082       .  S
C1497      C1506   1.381       .  A
C1497      C1498   1.385       .  A
C1498      C1499   1.401       .  A
C1498      N1504   1.342       .  A
C1499      C1500   1.400       .  A
C1499      H1508   1.082       .  S
C1500      C1503   1.374       .  A
N1501      C1502   1.356       .  A
N1501      H1511   1.044       .  S
C1502      C1503   1.393       .  A
C1503      H1509   1.083       .  S
N1504      C1505   1.354       .  A
N1504      H1512   1.045       .  S
C1505      C1506   1.396       .  A
C1506      H1510   1.082       .  S
C1513      C1514   1.407       .  A
C1513      C3282   1.384       .  A
C1513      N3283   1.348       .  A
C1514      C1515   1.407       .  A
C1514      H1525   1.082       .  S
C1515      C1524   1.382       .  A
C1515      C1516   1.385       .  A
C1516      C1517   1.402       .  A
C1516      N1522   1.343       .  A
C1517      C3282   1.402       .  A
C1517      H3290   1.082       .  S
C1518      C1521   1.374       .  A
C1518      C3277   1.385       .  A
C1518      C3281   1.399   1_554  A
N1519      C1520   1.356       .  A
N1519      C3277   1.346       .  A
N1519      H1529   1.045       .  S
C1520      C1521   1.393       .  A
C1521      H1527   1.083       .  S
N1522      C1523   1.354       .  A
N1522      H1530   1.045       .  S
C1523      C1524   1.397       .  A
C1524      H1528   1.082       .  S
H1526      C3281   1.083   1_554  S
C1531      C1536   1.385       .  A
C1531      C1532   1.406       .  A
C1531      N1537   1.348       .  A
C1532      C1533   1.406   1_565  A
C1532      H1543   1.082       .  S
C1533      C1542   1.381       .  A
C1533      C1534   1.385       .  A
C1534      C1535   1.403   1_545  A
C1534      N1540   1.345       .  A
C1535      C1536   1.403       .  A
C1535      H1544   1.082       .  S
C1536      C1539   1.376       .  A
N1537      C1538   1.357       .  A
N1537      H1547   1.045       .  S
C1538      C1539   1.394       .  A
C1539      H1545   1.082       .  S
N1540      C1541   1.356       .  A
N1540      H1548   1.044       .  S
C1541      C1542   1.396       .  A
C1542      H1546   1.082       .  S
C1549      C1554   1.385       .  A
C1549      C1550   1.403       .  A
C1549      N1555   1.345       .  A
C1550      C1551   1.403       .  A
C1550      H1561   1.082       .  S
C1551      C1560   1.377       .  A
C1551      C1552   1.385       .  A
C1552      C1553   1.403       .  A
C1552      N1558   1.344       .  A
C1553      C1554   1.403       .  A
C1553      H1562   1.082       .  S
C1554      C1557   1.378       .  A
N1555      C1556   1.355       .  A
N1555      H1565   1.045       .  S
C1556      C1557   1.395       .  A
C1557      H1563   1.082       .  S
N1558      C1559   1.354       .  A
N1558      H3330   1.045       .  S
C1559      C1560   1.394       .  A
C1560      H1564   1.083       .  S
H1566      N3322   1.045       .  S
C1567      C1572   1.385       .  A
C1567      C1568   1.405       .  A
C1567      N1573   1.345       .  A
C1568      C1569   1.404       .  A
C1568      H1579   1.082       .  S
C1569      C1578   1.380       .  A
C1569      C1570   1.385       .  A
C1570      C1571   1.403       .  A
C1570      N1576   1.342       .  A
C1571      C1572   1.402       .  A
C1571      H1580   1.082       .  S
C1572      C1575   1.378       .  A
N1573      C1574   1.357       .  A
N1573      H1583   1.045       .  S
C1574      C1575   1.394       .  A
C1575      H1581   1.082       .  S
N1576      C1577   1.354       .  A
N1576      H1584   1.045       .  S
C1577      C1578   1.395       .  A
C1578      H1582   1.082       .  S
C1585      C1590   1.385       .  A
C1585      C1586   1.398       .  A
C1585      N1591   1.341       .  A
C1586      C3351   1.398       .  A
C1586      H3361   1.082       .  S
C1587      C1596   1.375   1_556  A
C1587      C3350   1.402       .  A
C1587      C3352   1.385       .  A
C1588      C1589   1.408       .  A
C1588      C3351   1.385       .  A
C1588      N3358   1.349       .  A
C1589      C1590   1.408       .  A
C1589      H1598   1.082       .  S
C1590      C1593   1.382       .  A
N1591      C1592   1.353       .  A
N1591      H1601   1.045       .  S
C1592      C1593   1.398       .  A
C1593      H1599   1.082       .  S
N1594      C1595   1.356   1_556  A
N1594      C3352   1.347       .  A
N1594      H3366   1.044       .  S
C1595      C1596   1.394       .  A
C1596      H1600   1.083       .  S
H1597      C3350   1.082       .  S
H1602      N3358   1.044       .  S
C1603      C1608   1.385       .  A
C1603      C1604   1.405       .  A
C1603      N1609   1.344       .  A
C1604      C1605   1.404       .  A
C1604      H1615   1.082       .  S
C1605      C1614   1.381       .  A
C1605      C1606   1.385       .  A
C1606      C1607   1.402       .  A
C1606      N1612   1.341       .  A
C1607      C1608   1.400       .  A
C1607      H1616   1.082       .  S
C1608      C1611   1.377       .  A
N1609      C1610   1.355       .  A
N1609      H1619   1.045       .  S
C1610      C1611   1.393       .  A
C1611      H1617   1.082       .  S
N1612      C1613   1.355       .  A
N1612      H1620   1.044       .  S
C1613      C1614   1.395       .  A
C1614      H1618   1.082       .  S
C1621      C1626   1.384       .  A
C1621      C1622   1.408   1_455  A
C1621      N1627   1.348       .  A
C1622      C1623   1.408       .  A
C1622      H1633   1.082       .  S
C1623      C1632   1.384       .  A
C1623      C1624   1.384       .  A
C1624      C1625   1.403   1_655  A
C1624      N1630   1.344       .  A
C1625      C1626   1.402       .  A
C1625      H1634   1.082       .  S
C1626      C1629   1.377       .  A
N1627      C1628   1.357       .  A
N1627      H1637   1.044       .  S
C1628      C1629   1.395       .  A
C1629      H1635   1.082       .  S
N1630      C1631   1.355       .  A
N1630      H1638   1.045       .  S
C1631      C1632   1.398       .  A
C1632      H1636   1.082       .  S
C1639      C1644   1.384       .  A
C1639      C1640   1.407       .  A
C1639      N1645   1.343       .  A
C1640      C1641   1.405       .  A
C1640      H1651   1.082       .  S
C1641      C1650   1.386       .  A
C1641      C1642   1.384       .  A
C1642      C1643   1.404       .  A
C1642      N1648   1.341       .  A
C1643      C1644   1.401       .  A
C1643      H1652   1.082       .  S
C1644      C1647   1.381       .  A
N1645      C1646   1.357       .  A
N1645      H1655   1.045       .  S
C1646      C1647   1.394       .  A
C1647      H1653   1.082       .  S
N1648      C1649   1.355       .  A
N1648      H1656   1.045       .  S
C1649      C1650   1.398       .  A
C1650      H1654   1.082       .  S
C1657      C1662   1.384       .  A
C1657      C1658   1.407       .  A
C1657      N1663   1.346       .  A
C1658      C1659   1.406       .  A
C1658      H1669   1.082       .  S
C1659      C3432   1.383   1_554  A
C1659      C3424   1.384   1_554  A
C1660      C3423   1.384       .  A
C1660      C3425   1.404       .  A
C1660      N1666   1.343       .  A
C1661      C1662   1.402       .  A
C1661      C3424   1.404   1_554  A
C1661      H3434   1.082   1_554  S
C1662      C1665   1.380       .  A
N1663      C1664   1.357       .  A
N1663      H1673   1.045       .  S
C1664      C1665   1.394       .  A
C1665      H1671   1.082       .  S
N1666      C1667   1.355       .  A
N1666      H1674   1.045       .  S
C1667      C1668   1.397       .  A
C1668      C3423   1.385       .  A
C1668      H1672   1.082       .  S
H1670      C3425   1.082       .  S
C1675      C1680   1.385       .  A
C1675      C1676   1.402       .  A
C1675      N1681   1.342       .  A
C1676      C1677   1.400       .  A
C1676      H1687   1.082       .  S
C1677      C1686   1.377       .  A
C1677      C1678   1.384       .  A
C1678      C1679   1.408       .  A
C1678      N1684   1.346       .  A
C1679      C1680   1.407       .  A
C1679      H1688   1.082       .  S
C1680      C1683   1.384       .  A
N1681      C1682   1.354       .  A
N1681      H1691   1.045       .  S
C1682      C1683   1.398       .  A
C1683      H1689   1.082       .  S
N1684      C1685   1.357       .  A
N1684      H1692   1.045       .  S
C1685      C1686   1.393       .  A
C1686      H1690   1.082       .  S
C1693      C1698   1.384       .  A
C1693      C1694   1.405       .  A
C1693      N1699   1.346       .  A
C1694      C1695   1.406       .  A
C1694      H1705   1.082       .  S
C1695      C3468   1.380       .  A
C1695      C3460   1.385       .  A
C1696      C3459   1.384       .  A
C1696      C3461   1.405       .  A
C1696      N1702   1.345       .  A
C1697      C1698   1.403       .  A
C1697      C3460   1.404       .  A
C1697      H1706   1.082       .  S
C1698      C1701   1.378       .  A
N1699      C1700   1.357       .  A
N1699      H1709   1.045       .  S
C1700      C1701   1.395       .  A
C1701      H1707   1.082       .  S
N1702      C1703   1.356   1_556  A
N1702      H1710   1.045       .  S
C1703      C1704   1.396       .  A
C1704      C3459   1.380   1_554  A
C1704      H1708   1.082       .  S
C1711      C1716   1.384       .  A
C1711      C1712   1.407       .  A
C1711      N1717   1.347       .  A
C1712      C1713   1.407       .  A
C1712      H1723   1.082       .  S
C1713      C1722   1.383       .  A
C1713      C1714   1.385       .  A
C1714      C1715   1.403       .  A
C1714      N1720   1.342       .  A
C1715      C1716   1.401       .  A
C1715      H1724   1.082       .  S
C1716      C1719   1.378       .  A
N1717      C1718   1.357       .  A
N1717      H1727   1.045       .  S
C1718      C1719   1.394       .  A
C1719      H1725   1.082       .  S
N1720      C1721   1.354       .  A
N1720      H1728   1.045       .  S
C1721      C1722   1.397       .  A
C1722      H1726   1.082       .  S
C1729      C1734   1.384       .  A
C1729      C1730   1.409       .  A
C1729      N1735   1.348       .  A
C1730      C1731   1.408   1_565  A
C1730      H1741   1.082   1_565  S
C1731      C1740   1.386       .  A
C1731      C1732   1.384       .  A
C1732      C1733   1.405   1_545  A
C1732      N1738   1.345       .  A
C1733      C1734   1.405       .  A
C1733      H1742   1.082       .  S
C1734      C1737   1.381       .  A
N1735      C1736   1.357       .  A
N1735      H1745   1.045       .  S
C1736      C1737   1.397       .  A
C1737      H1743   1.082       .  S
N1738      C1739   1.356       .  A
N1738      H1746   1.045       .  S
C1739      C1740   1.399       .  A
C1740      H1744   1.082       .  S
C1747      C1752   1.384       .  A
C1747      C1748   1.404       .  A
C1747      N1753   1.342       .  A
C1748      C1749   1.402       .  A
C1748      H1759   1.082   1_554  S
C1749      C1758   1.380       .  A
C1749      C1750   1.385       .  A
C1750      C1751   1.405       .  A
C1750      N1756   1.344       .  A
C1751      C1752   1.404       .  A
C1751      H1760   1.082       .  S
C1752      C1755   1.382       .  A
N1753      C1754   1.356       .  A
N1753      H1763   1.045       .  S
C1754      C1755   1.395       .  A
C1755      H1761   1.082       .  S
N1756      C1757   1.356       .  A
N1756      H1764   1.045       .  S
C1757      C1758   1.394       .  A
C1758      H3526   1.082   1_554  S
H1762      C3522   1.082       .  S
In1765     O1767   2.264       .  S
In1765     O1768   2.255       .  S
In1765     O1776   2.250       .  S
In1765     O1770   2.277       .  S
In1765     O1772   2.270       .  S
In1765     O1773   2.280       .  S
In1765     O1774   2.252       .  S
In1765     O1777   2.255       .  S
C1766      O1772   1.261       .  A
C1766      O1774   1.256       .  A
C1766      C3467   1.474       .  S
O1767      C1775   1.260       .  A
O1768      C1775   1.261       .  A
C1769      O1776   1.260       .  A
C1769      O1770   1.262       .  A
C1769      C3500   1.479       .  S
C1771      O1773   1.262       .  A
C1771      O1777   1.258       .  A
C1771      C3518   1.479       .  S
C1775      C3482   1.475       .  S
In1778     O1780   2.256       .  S
In1778     O1781   2.269       .  S
In1778     O1789   2.265       .  S
In1778     O1783   2.288       .  S
In1778     O1785   2.279       .  S
In1778     O1786   2.266       .  S
In1778     O1787   2.233       .  S
In1778     O1790   2.253       .  S
C1779      O1785   1.266       .  A
C1779      O1787   1.259       .  A
C1779      C3410   1.476       .  S
O1780      C1788   1.258       .  A
O1781      C1788   1.261       .  A
C1782      O1789   1.258       .  A
C1782      O1783   1.260       .  A
C1782      C3503   1.484       .  S
C1784      O1786   1.262       .  A
C1784      O1790   1.261       .  A
C1784      C3446   1.478       .  S
C1788      C3428   1.476       .  S
In1791     O1793   2.246       .  S
In1791     O1794   2.253       .  S
In1791     O1802   2.251       .  S
In1791     O1796   2.274       .  S
In1791     O1798   2.262       .  S
In1791     O1799   2.260       .  S
In1791     O1800   2.225       .  S
In1791     O1803   2.252       .  S
C1792      O1798   1.265       .  A
C1792      O1800   1.259       .  A
C1792      C3377   1.468       .  S
O1793      C1801   1.262       .  A
O1794      C1801   1.263       .  A
C1795      O1802   1.256       .  A
C1795      O1796   1.258       .  A
C1795      C3392   1.472       .  S
C1797      O1799   1.260       .  A
C1797      O1803   1.258       .  A
C1797      C3356   1.471       .  S
C1801      C3341   1.472       .  S
In1804     O1806   2.239       .  S
In1804     O1807   2.257       .  S
In1804     O1815   2.244       .  S
In1804     O1809   2.273       .  S
In1804     O1811   2.261       .  S
In1804     O1812   2.268       .  S
In1804     O1813   2.235       .  S
In1804     O1816   2.247       .  S
C1805      O1811   1.265       .  A
C1805      O1813   1.261       .  A
C1805      C3431   1.473       .  S
O1806      C1814   1.260       .  A
O1807      C1814   1.263       .  A
C1808      O1815   1.256       .  A
C1808      O1809   1.260       .  A
C1808      C3395   1.472       .  S
C1810      O1812   1.261       .  A
C1810      O1816   1.258       .  A
C1810      C3413   1.474       .  S
C1814      C3320   1.469       .  S
In1817     O1819   2.242       .  S
In1817     O1820   2.233       .  S
In1817     O1828   2.265       .  S
In1817     O1822   2.246       .  S
In1817     O1824   2.259       .  S
In1817     O1825   2.231       .  S
In1817     O1826   2.233       .  S
In1817     O1829   2.265       .  S
C1818      O1824   1.263       .  A
C1818      O1826   1.260       .  A
C1818      C3266   1.469       .  S
O1819      C1827   1.261       .  A
O1820      C1827   1.260       .  A
C1821      O1828   1.261       .  A
C1821      O1822   1.257       .  A
C1821      C3302   1.472       .  S
C1823      O1825   1.257       .  A
C1823      O1829   1.261       .  A
C1823      C3287   1.467       .  S
C1827      C3248   1.462       .  S
In1830     O1832   2.231       .  S
In1830     O1833   2.247       .  S
In1830     O1841   2.267       .  S
In1830     O1835   2.266       .  S
In1830     O1837   2.267       .  S
In1830     O1838   2.257       .  S
In1830     O1839   2.241       .  S
In1830     O1842   2.235       .  S
C1831      O1837   1.263       .  A
C1831      O1839   1.258       .  A
C1831      C3194   1.472       .  S
O1832      C1840   1.263       .  A
O1833      C1840   1.264       .  A
C1834      O1841   1.257       .  A
C1834      O1835   1.258       .  A
C1834      C3305   1.476       .  S
C1836      O1838   1.261       .  A
C1836      O1842   1.258       .  A
C1836      C3215   1.467       .  S
C1840      C3233   1.468       .  S
In1843     O1845   2.260       .  S
In1843     O1846   2.254       .  S
In1843     O1854   2.245       .  S
In1843     O1848   2.270       .  S
In1843     O1850   2.259       .  S
In1843     O1851   2.262       .  S
In1843     O1852   2.236       .  S
In1843     O1855   2.236       .  S
C1844      O1850   1.263       .  A
C1844      O1852   1.260       .  A
C1844      C3212   1.469       .  S
O1845      C1853   1.259       .  A
O1846      C1853   1.260       .  A
C1847      O1854   1.256       .  A
C1847      O1848   1.259       .  A
C1847      C3158   1.470       .  S
C1849      O1851   1.263       .  A
C1849      O1855   1.261       .  A
C1849      C3179   1.472       .  S
C1853      C3197   1.473       .  S
In1856     O1858   2.247       .  S
In1856     O1859   2.246       .  S
In1856     O1867   2.239       .  S
In1856     O1861   2.263       .  S
In1856     O1863   2.272       .  S
In1856     O1864   2.245       .  S
In1856     O1865   2.215       .  S
In1856     O1868   2.232       .  S
C1857      O1863   1.265       .  A
C1857      O1865   1.259       .  A
C1857      C3359   1.469       .  S
O1858      C1866   1.259       .  A
O1859      C1866   1.260       .  A
C1860      O1867   1.256       .  A
C1860      O1861   1.260       .  A
C1860      C3161   1.467       .  S
C1862      O1864   1.263       .  A
C1862      O1868   1.261       .  A
C1862      C3143   1.465       .  S
C1866      C3374   1.467       .  S
In1869     O1871   2.255       .  S
In1869     O1872   2.250       .  S
In1869     O1880   2.246       .  S
In1869     O1874   2.276       .  S
In1869     O1876   2.270       .  S
In1869     O1877   2.251       .  S
In1869     O1878   2.240       .  S
In1869     O1881   2.235       .  S
C1870      O1876   1.263       .  A
C1870      O1878   1.260       .  A
C1870      C3284   1.474       .  S
O1871      C1879   1.259       .  A
O1872      C1879   1.259       .  A
C1873      O1880   1.256       .  A
C1873      O1874   1.259       .  A
C1873      C3104   1.472       .  S
C1875      O1877   1.263       .  A
C1875      O1881   1.262       .  A
C1875      C3122   1.468       .  S
C1879      C3269   1.469       .  S
In1882     O1884   2.242       .  S
In1882     O1885   2.253       .  S
In1882     O1893   2.235       .  S
In1882     O1887   2.266       .  S
In1882     O1889   2.242       .  S
In1882     O1890   2.258       .  S
In1882     O1891   2.232       .  S
In1882     O1894   2.237       .  S
C1883      O1889   1.263       .  A
C1883      O1891   1.261       .  A
C1883      C3068   1.465       .  S
O1884      C1892   1.257       .  A
O1885      C1892   1.261       .  A
C1886      O1893   1.256       .  A
C1886      O1887   1.259       .  A
C1886      C3107   1.467       .  S
C1888      O1890   1.264       .  A
C1888      O1894   1.261       .  A
C1888      C3086   1.471       .  S
C1892      C3053   1.467       .  S
In1895     O1897   2.242       .  S
In1895     O1898   2.248       .  S
In1895     O1906   2.253       .  S
In1895     O1900   2.254       .  S
In1895     O1902   2.247       .  S
In1895     O1903   2.252       .  S
In1895     O1904   2.226       .  S
In1895     O1907   2.240       .  S
C1896      O1902   1.265       .  A
C1896      O1904   1.260       .  A
C1896      C3050   1.464       .  S
O1897      C1905   1.262       .  A
O1898      C1905   1.261       .  A
C1899      O1906   1.259       .  A
C1899      O1900   1.260       .  A
C1899      C3014   1.471       .  S
C1901      O1903   1.261       .  A
C1901      O1907   1.258       .  A
C1901      C3071   1.466       .  S
C1905      C3032   1.468       .  S
In1908     O1910   2.282       .  S
In1908     O1911   2.239       .  S
In1908     O1919   2.253       .  S
In1908     O1913   2.257       .  S
In1908     O1915   2.246       .  S
In1908     O1916   2.264       .  S
In1908     O1917   2.257       .  S
In1908     O1920   2.254       .  S
C1909      O1915   1.260       .  A
C1909      O1917   1.260       .  A
C1909      C3485   1.471       .  S
O1910      C1918   1.261       .  A
O1911      C1918   1.255       .  A
C1912      O1919   1.259       .  A
C1912      O1913   1.261       .  A
C1912      C3017   1.471       .  S
C1914      O1916   1.259       .  A
C1914      O1920   1.259       .  A
C1914      C3464   1.473       .  S
C1918      C2996   1.473       .  S
In1921     O1923   2.245       .  S
In1921     O1924   2.263       .  S
In1921     O1932   2.244       .  S
In1921     O1926   2.282       .  S
In1921     O1928   2.254       .  S
In1921     O1929   2.262       .  S
In1921     O1930   2.227       .  S
In1921     O1933   2.266       .  S
C1922      O1928   1.265       .  A
C1922      O1930   1.261       .  A
C1922      C2942   1.467       .  S
O1923      C1931   1.259       .  A
O1924      C1931   1.261       .  A
C1925      O1932   1.257       .  A
C1925      O1926   1.259       .  A
C1925      C2981   1.475       .  S
C1927      O1929   1.260       .  A
C1927      O1933   1.262       .  A
C1927      C3449   1.478       .  S
C1931      C2960   1.472       .  S
In1934     O1936   2.239       .  S
In1934     O1937   2.257       .  S
In1934     O1945   2.245       .  S
In1934     O1939   2.279       .  S
In1934     O1941   2.260       .  S
In1934     O1942   2.253       .  S
In1934     O1943   2.230       .  S
In1934     O1946   2.246       .  S
C1935      O1941   1.264       .  A
C1935      O1943   1.259       .  A
C1935      C2906   1.469       .  S
O1936      C1944   1.258       .  A
O1937      C1944   1.261       .  A
C1938      O1945   1.257       .  A
C1938      O1939   1.259       .  A
C1938      C2978   1.474       .  S
C1940      O1942   1.263       .  A
C1940      O1946   1.262       .  A
C1940      C2891   1.472       .  S
C1944      C2927   1.468       .  S
In1947     O1949   2.240       .  S
In1947     O1950   2.248       .  S
In1947     O1958   2.249       .  S
In1947     O1952   2.271       .  S
In1947     O1954   2.256       .  S
In1947     O1955   2.246       .  S
In1947     O1956   2.235       .  S
In1947     O1959   2.247       .  S
C1948      O1954   1.265       .  A
C1948      O1956   1.260       .  A
C1948      C2924   1.470       .  S
O1949      C1957   1.262       .  A
O1950      C1957   1.262       .  A
C1951      O1958   1.256       .  A
C1951      O1952   1.259       .  A
C1951      C2852   1.473       .  S
C1953      O1955   1.259       .  A
C1953      O1959   1.258       .  A
C1953      C2909   1.465       .  S
C1957      C2873   1.468       .  S
In1960     O1963   2.256       .  S
In1960     O1971   2.259       .  S
In1960     O1965   2.271       .  S
In1960     O1968   2.263       .  S
In1960     O1972   2.235       .  S
C1961      O1967   1.265       .  A
C1961      O1969   1.260       .  A
C1961      C2837   1.470       .  S
O1962      C1970   1.260       .  A
C1964      O1971   1.257       .  A
C1964      O1965   1.259       .  A
C1964      C2855   1.476       .  S
C1966      O1968   1.261       .  A
C1966      O1972   1.259       .  A
C1966      C2816   1.468       .  S
C1970      C3230   1.470       .  S
In1973     O1975   2.246       .  S
In1973     O1976   2.247       .  S
In1973     O1984   2.237       .  S
In1973     O1978   2.275       .  S
In1973     O1980   2.244       .  S
In1973     O1981   2.248       .  S
In1973     O1982   2.224       .  S
In1973     O1985   2.241       .  S
C1974      O1980   1.265       .  A
C1974      O1982   1.260       .  A
C1974      C2819   1.464       .  S
O1975      C1983   1.257       .  A
O1976      C1983   1.261       .  A
C1977      O1984   1.256       .  A
C1977      O1978   1.260       .  A
C1977      C2798   1.470       .  S
C1979      O1981   1.264       .  A
C1979      O1985   1.262       .  A
C1979      C3176   1.470       .  S
C1983      C2834   1.467       .  S
In1986     O1988   2.246       .  S
In1986     O1989   2.255       .  S
In1986     O1997   2.243       .  S
In1986     O1991   2.265       .  S
In1986     O1993   2.252       .  S
In1986     O1994   2.233       .  S
In1986     O1995   2.233       .  S
In1986     O1998   2.237       .  S
C1987      O1993   1.264       .  A
C1987      O1995   1.259       .  A
C1987      C2762   1.467       .  S
O1988      C1996   1.258       .  A
O1989      C1996   1.260       .  A
C1990      O1997   1.257       .  A
C1990      O1991   1.260       .  A
C1990      C2801   1.470       .  S
C1992      O1994   1.264       .  A
C1992      O1998   1.262       .  A
C1992      C2780   1.464       .  S
C1996      C2744   1.469       .  S
In1999     O2001   2.238       .  S
In1999     O2002   2.240       .  S
In1999     O2010   2.248       .  S
In1999     O2004   2.264       .  S
In1999     O2006   2.256       .  S
In1999     O2007   2.245       .  S
In1999     O2008   2.230       .  S
In1999     O2011   2.241       .  S
C2000      O2006   1.264       .  A
C2000      O2008   1.260       .  A
C2000      C2747   1.468       .  S
O2001      C2009   1.262       .  A
O2002      C2009   1.263       .  A
C2003      O2010   1.257       .  A
C2003      O2004   1.259       .  A
C2003      C2711   1.470       .  S
C2005      O2007   1.260       .  A
C2005      O2011   1.258       .  A
C2009      C2729   1.466       .  S
In2012     O2015   2.247       .  S
In2012     O2023   2.269       .  S
In2012     O2017   2.240       .  S
In2012     O2020   2.254       .  S
In2012     O2024   2.252       .  S
C2013      O2019   1.264       .  A
C2013      O2021   1.259   1_556  A
C2013      C2693   1.470       .  S
O2014      C2022   1.263   1_556  A
C2016      O2023   1.260       .  A
C2016      O2017   1.257       .  A
C2016      C2708   1.469       .  S
C2018      O2020   1.259       .  A
C2018      O2024   1.259       .  A
C2018      C2672   1.470       .  S
C2022      C3035   1.466   1_554  S
In2025     O2027   2.240       .  S
In2025     O2028   2.265       .  S
In2025     O2036   2.243       .  S
In2025     O2030   2.265       .  S
In2025     O2032   2.243       .  S
In2025     O2033   2.246       .  S
In2025     O2034   2.235       .  S
In2025     O2037   2.245       .  S
C2026      O2032   1.264       .  A
C2026      O2034   1.261       .  A
C2026      C2675   1.466       .  S
O2027      C2035   1.257       .  A
O2028      C2035   1.261       .  A
C2029      O2036   1.256       .  A
C2029      O2030   1.259       .  A
C2029      C2654   1.468       .  S
C2031      O2033   1.264       .  A
C2031      O2037   1.261       .  A
C2031      C3089   1.470       .  S
C2035      C2690   1.470       .  S
In2038     O2040   2.255       .  S
In2038     O2041   2.237       .  S
In2038     O2049   2.250       .  S
In2038     O2043   2.268       .  S
In2038     O2045   2.250       .  S
In2038     O2046   2.246       .  S
In2038     O2047   2.239       .  S
In2038     O2050   2.239       .  S
C2039      O2045   1.264       .  A
C2039      O2047   1.259       .  A
C2039      C2618   1.469       .  S
O2040      C2048   1.258       .  A
O2041      C2048   1.260       .  A
C2042      O2049   1.257       .  A
C2042      O2043   1.260       .  A
C2042      C2657   1.472       .  S
C2044      O2046   1.262       .  A
C2044      O2050   1.262       .  A
C2044      C2636   1.467       .  S
C2048      C2600   1.466       .  S
In2051     O2054   2.244       .  S
In2051     O2062   2.221       .  S
In2051     O2056   2.267       .  S
In2051     O2059   2.248       .  S
In2051     O2063   2.246       .  S
C2052      O2058   1.266       .  A
C2052      O2060   1.261       .  A
C2052      C2963   1.471       .  S
O2053      C2061   1.262   1_556  A
C2055      O2062   1.255       .  A
C2055      O2056   1.261       .  A
C2055      C2585   1.463       .  S
C2057      O2059   1.258       .  A
C2057      O2063   1.260       .  A
C2057      C2945   1.466       .  S
C2061      C3323   1.467   1_554  S
In2064     O2066   2.237       .  S
In2064     O2067   2.253       .  S
In2064     O2075   2.239       .  S
In2064     O2069   2.249       .  S
In2064     O2071   2.269       .  S
In2064     O2072   2.274       .  S
In2064     O2073   2.210       .  S
In2064     O2076   2.254       .  S
C2065      O2071   1.263       .  A
C2065      O2073   1.259       .  A
C2065      C2603   1.465       .  S
O2066      C2074   1.260       .  A
O2067      C2074   1.265       .  A
C2068      O2075   1.256       .  A
C2068      O2069   1.258       .  A
C2068      C2582   1.461       .  S
C2070      O2072   1.261       .  A
C2070      O2076   1.257       .  A
C2070      C2621   1.477       .  S
C2074      C2564   1.469       .  S
In2077     O2079   2.249       .  S
In2077     O2080   2.245       .  S
In2077     O2088   2.238       .  S
In2077     O2082   2.260       .  S
In2077     O2084   2.246       .  S
In2077     O2085   2.228       .  S
In2077     O2086   2.223       .  S
In2077     O2089   2.241       .  S
C2078      O2084   1.265       .  A
C2078      O2086   1.260       .  A
C2078      C2528   1.464       .  S
O2079      C2087   1.258       .  A
O2080      C2087   1.260       .  A
C2081      O2088   1.256       .  A
C2081      O2082   1.261       .  A
C2081      C2546   1.468       .  S
C2083      O2085   1.262       .  A
C2083      O2089   1.262       .  A
C2083      C2639   1.463       .  S
In2090     O2092   2.248       .  S
In2090     O2093   2.257       .  S
In2090     O2101   2.251       .  S
In2090     O2095   2.263       .  S
In2090     O2098   2.239       .  S
C2091      O2097   1.265       .  A
C2091      O2099   1.261       .  A
C2091      C2492   1.464       .  S
O2092      C2100   1.258       .  A
O2093      C2100   1.260       .  A
C2094      O2101   1.256       .  A
C2094      O2095   1.259       .  A
C2094      C2549   1.469       .  S
C2096      O2102   1.260       .  A
C2096      C3125   1.467       .  S
C2100      C2477   1.470       .  S
In2103     O2105   2.252       .  S
In2103     O2106   2.249       .  S
In2103     O2114   2.250       .  S
In2103     O2108   2.271       .  S
In2103     O2110   2.264       .  S
In2103     O2111   2.260       .  S
In2103     O2112   2.240       .  S
In2103     O2115   2.249       .  S
C2104      O2110   1.264       .  A
C2104      O2112   1.261       .  A
C2104      C2423   1.474       .  S
O2105      C2113   1.263       .  A
O2106      C2113   1.261       .  A
C2107      O2114   1.256       .  A
C2107      O2108   1.259       .  A
C2107      C2459   1.472       .  S
C2109      O2111   1.259       .  A
C2109      O2115   1.258       .  A
C2109      C2438   1.470       .  S
C2113      C3338   1.472       .  S
In2116     O2118   2.232       .  S
In2116     O2119   2.259       .  S
In2116     O2127   2.268       .  S
In2116     O2121   2.247       .  S
In2116     O2123   2.260       .  S
In2116     O2124   2.265       .  S
In2116     O2125   2.236       .  S
In2116     O2128   2.229       .  S
C2117      O2123   1.264       .  A
C2117      O2125   1.260       .  A
C2117      C2513   1.471       .  S
O2118      C2126   1.260       .  A
O2119      C2126   1.264       .  A
C2120      O2127   1.258       .  A
C2120      O2121   1.256       .  A
C2120      C2456   1.470       .  S
C2122      O2124   1.261       .  A
C2122      O2128   1.257       .  A
C2122      C2531   1.466       .  S
C2126      C2567   1.469       .  S
In2129     O2131   2.224       .  S
In2129     O2132   2.241       .  S
In2129     O2140   2.252       .  S
In2129     O2134   2.272       .  S
In2129     O2136   2.263       .  S
In2129     O2137   2.247       .  S
In2129     O2138   2.234       .  S
In2129     O2141   2.240       .  S
C2130      O2136   1.265       .  A
C2130      O2138   1.260       .  A
C2130      C2474   1.472       .  S
O2131      C2139   1.261       .  A
O2132      C2139   1.263       .  A
C2133      O2140   1.256       .  A
C2133      O2134   1.261       .  A
C2133      C2402   1.475       .  S
C2135      O2137   1.260       .  A
C2135      O2141   1.258       .  A
C2135      C2495   1.464       .  S
C2139      C3251   1.461       .  S
In2142     O2144   2.249       .  S
In2142     O2145   2.247       .  S
In2142     O2153   2.261       .  S
In2142     O2147   2.269       .  S
In2142     O2149   2.268       .  S
In2142     O2150   2.259       .  S
In2142     O2151   2.240       .  S
In2142     O2154   2.260       .  S
C2143      O2149   1.262       .  A
C2143      O2151   1.258       .  A
C2143      C2366   1.471       .  S
O2144      C2152   1.262       .  A
O2145      C2152   1.261       .  A
C2146      O2153   1.258       .  A
C2146      O2147   1.259       .  A
C2146      C2405   1.476       .  S
C2148      O2150   1.259       .  A
C2148      O2154   1.260       .  A
C2148      C2387   1.475       .  S
C2152      C2870   1.470       .  S
In2155     O2157   2.230       .  S
In2155     O2158   2.260       .  S
In2155     O2166   2.244       .  S
In2155     O2160   2.274       .  S
In2155     O2163   2.251       .  S
C2156      O2162   1.266       .  A
C2156      O2164   1.259       .  A
C2156      C2330   1.470       .  S
O2157      C2165   1.256       .  A
O2158      C2165   1.260       .  A
C2159      O2166   1.257       .  A
C2159      O2160   1.258       .  A
C2159      C2348   1.472       .  S
C2161      O2167   1.262       .  A
C2161      C3521   1.478       .  S
C2165      C2312   1.464       .  S
In2168     O2170   2.247       .  S
In2168     O2171   2.265       .  S
In2168     O2179   2.242       .  S
In2168     O2173   2.293       .  S
In2168     O2175   2.276       .  S
In2168     O2176   2.262       .  S
In2168     O2177   2.234       .  S
In2168     O2180   2.237       .  S
C2169      O2175   1.266       .  A
C2169      O2177   1.260       .  A
C2169      C2384   1.476       .  S
O2170      C2178   1.257       .  A
O2171      C2178   1.261       .  A
C2172      O2179   1.254       .  A
C2172      O2173   1.260       .  A
C2172      C2351   1.475       .  S
C2174      O2176   1.264       .  A
C2174      O2180   1.262       .  A
C2174      C2888   1.473       .  S
In2181     O2183   2.244       .  S
In2181     O2184   2.271       .  S
In2181     O2192   2.261       .  S
In2181     O2186   2.282       .  S
In2181     O2189   2.259       .  S
C2182      O2188   1.265       .  A
C2182      O2190   1.259       .  A
C2182      C2441   1.466       .  S
O2183      C2191   1.258       .  A
O2184      C2191   1.261       .  A
C2185      O2192   1.256       .  A
C2185      O2186   1.259       .  A
C2185      C2294   1.477       .  S
C2187      O2193   1.261       .  A
C2187      C3140   1.467       .  S
C2191      C2420   1.473       .  S
In2194     O2196   2.240       .  S
In2194     O2197   2.238       .  S
In2194     O2205   2.238       .  S
In2194     O2199   2.268       .  S
In2194     O2201   2.247       .  S
In2194     O2202   2.245       .  S
In2194     O2203   2.229       .  S
In2194     O2206   2.227       .  S
C2195      O2201   1.264       .  A
C2195      O2203   1.260       .  A
C2195      C2276   1.464       .  S
O2196      C2204   1.258       .  A
O2197      C2204   1.260       .  A
C2198      O2205   1.257       .  A
C2198      O2199   1.260       .  A
C2198      C2297   1.471       .  S
C2200      O2202   1.263       .  A
C2200      O2206   1.261       .  A
C2200      C2783   1.463       .  S
In2207     O2209   2.231       .  S
In2207     O2210   2.247       .  S
In2207     O2218   2.242       .  S
In2207     O2212   2.259       .  S
In2207     O2214   2.259       .  S
In2207     O2215   2.252       .  S
In2207     O2216   2.223       .  S
In2207     O2219   2.237       .  S
C2208      O2214   1.264       .  A
C2208      O2216   1.260       .  A
C2208      C2261   1.466       .  S
O2209      C2217   1.262       .  A
O2210      C2217   1.263       .  A
C2211      O2218   1.256       .  A
C2211      O2212   1.259       .  A
C2211      C2240   1.467       .  S
C2213      O2215   1.260       .  A
C2213      O2219   1.258       .  A
C2213      C2279   1.464       .  S
C2217      C2726   1.466       .  S
In2220     O2222   2.251       .  S
In2220     O2223   2.231       .  S
In2220     O2231   2.246       .  S
In2220     O2225   2.252       .  S
In2220     O2227   2.273       .  S
In2220     O2228   2.248       .  S
In2220     O2229   2.218       .  S
In2220     O2232   2.248       .  S
C2221      O2227   1.263       .  A
C2221      O2229   1.257       .  A
C2221      C2315   1.467       .  S
O2222      C2230   1.262       .  A
O2223      C2230   1.261       .  A
C2224      O2231   1.257       .  A
C2224      O2225   1.261       .  A
C2224      C2243   1.468       .  S
C2226      O2228   1.261       .  A
C2226      O2232   1.260       .  A
C2226      C2333   1.469       .  S
C2230      C2999   1.468       .  S
C2233      C2238   1.385       .  A
C2233      C2234   1.402       .  A
C2233      N2239   1.343       .  A
C2234      C2235   1.401       .  A
C2234      H2245   1.082       .  S
C2235      C2244   1.376       .  A
C2235      C2236   1.385       .  A
C2236      C2237   1.404       .  A
C2236      N2242   1.344       .  A
C2237      C2238   1.403       .  A
C2237      H2246   1.082       .  S
C2238      C2241   1.377       .  A
N2239      C2240   1.354       .  A
N2239      H2249   1.044       .  S
C2240      C2241   1.395       .  A
C2241      H2247   1.082       .  S
N2242      C2243   1.356       .  A
N2242      H2250   1.045       .  S
C2243      C2244   1.392       .  A
C2244      H2248   1.082       .  S
C2251      C2256   1.385       .  A
C2251      C2252   1.399       .  A
C2251      N2257   1.341       .  A
C2252      C2253   1.399       .  A
C2252      H2263   1.082       .  S
C2253      C2262   1.372       .  A
C2253      C2254   1.385       .  A
C2254      C2255   1.404       .  A
C2254      N2260   1.345       .  A
C2255      C2256   1.404       .  A
C2255      H2264   1.082       .  S
C2256      C2259   1.378       .  A
N2257      C2258   1.353       .  A
N2257      H2267   1.045       .  S
C2258      C2259   1.395       .  A
C2259      H2265   1.082       .  S
N2260      C2261   1.356       .  A
N2260      H2268   1.045       .  S
C2261      C2262   1.392       .  A
C2262      H2266   1.083       .  S
C2269      C2274   1.385       .  A
C2269      C2270   1.401       .  A
C2269      N2275   1.343       .  A
C2270      C2271   1.401       .  A
C2270      H2281   1.082       .  S
C2271      C2280   1.375       .  A
C2271      C2272   1.385       .  A
C2272      C2273   1.402       .  A
C2272      N2278   1.343       .  A
C2273      C2274   1.401       .  A
C2273      H2282   1.082       .  S
C2274      C2277   1.375       .  A
N2275      C2276   1.354       .  A
N2275      H2285   1.045       .  S
C2276      C2277   1.394       .  A
C2277      H2283   1.082       .  S
N2278      C2279   1.354       .  A
N2278      H2286   1.045       .  S
C2279      C2280   1.393       .  A
C2280      H2284   1.082       .  S
C2287      C2292   1.384       .  A
C2287      C2288   1.408       .  A
C2287      N2293   1.348       .  A
C2288      C2289   1.407       .  A
C2288      H2299   1.082       .  S
C2289      C2298   1.384       .  A
C2289      C2290   1.384       .  A
C2290      C2291   1.403       .  A
C2290      N2296   1.342       .  A
C2291      C2292   1.402       .  A
C2291      H2300   1.082       .  S
C2292      C2295   1.378       .  A
N2293      C2294   1.358       .  A
N2293      H2303   1.044       .  S
C2294      C2295   1.395       .  A
C2295      H2301   1.082       .  S
N2296      C2297   1.354       .  A
N2296      H2304   1.044       .  S
C2297      C2298   1.397       .  A
C2298      H2302   1.082       .  S
C2305      C2310   1.386       .  A
C2305      C2306   1.400       .  A
C2305      N2311   1.343       .  A
C2306      C2307   1.401       .  A
C2306      H2317   1.082       .  S
C2307      C2316   1.372       .  A
C2307      C2308   1.385       .  A
C2308      C2309   1.403       .  A
C2308      N2314   1.346       .  A
C2309      C2310   1.404       .  A
C2309      H2318   1.082       .  S
C2310      C2313   1.375       .  A
N2311      C2312   1.353       .  A
N2311      H2321   1.045       .  S
C2312      C2313   1.394       .  A
C2313      H2319   1.082       .  S
N2314      C2315   1.356       .  A
N2314      H2322   1.045       .  S
C2315      C2316   1.393       .  A
C2316      H2320   1.082       .  S
C2323      C2328   1.385       .  A
C2323      C2324   1.403       .  A
C2323      N2329   1.341       .  A
C2324      C2325   1.401       .  A
C2324      H2335   1.082       .  S
C2325      C2334   1.378       .  A
C2325      C2326   1.385       .  A
C2326      C2327   1.405       .  A
C2326      N2332   1.344       .  A
C2327      C2328   1.404       .  A
C2327      H2336   1.082       .  S
C2328      C2331   1.382       .  A
N2329      C2330   1.355       .  A
N2329      H2339   1.045       .  S
C2330      C2331   1.395       .  A
C2331      H2337   1.082       .  S
N2332      C2333   1.356       .  A
N2332      H2340   1.045       .  S
C2333      C2334   1.394       .  A
C2334      H2338   1.082       .  S
C2341      C2346   1.384       .  A
C2341      C2342   1.410       .  A
C2341      N2347   1.348       .  A
C2342      C2343   1.409       .  A
C2342      H2353   1.082       .  S
C2343      C2352   1.387       .  A
C2343      C2344   1.384       .  A
C2344      C2345   1.400       .  A
C2344      N2350   1.340       .  A
C2345      C2346   1.398       .  A
C2345      H2354   1.082       .  S
C2346      C2349   1.374       .  A
N2347      C2348   1.358       .  A
N2347      H2357   1.045       .  S
C2348      C2349   1.392       .  A
C2349      H2355   1.083       .  S
N2350      C2351   1.354       .  A
N2350      H2358   1.044       .  S
C2351      C2352   1.399       .  A
C2352      H2356   1.082       .  S
C2359      C2364   1.385       .  A
C2359      C2360   1.403       .  A
C2359      N2365   1.341       .  A
C2360      C2361   1.400       .  A
C2360      H2371   1.082       .  S
C2361      C2370   1.378       .  A
C2361      C2362   1.385       .  A
C2362      C2363   1.405       .  A
C2363      C2364   1.404       .  A
C2363      H2372   1.082       .  S
C2364      C2367   1.382       .  A
N2365      C2366   1.355       .  A
N2365      H2375   1.045       .  S
C2366      C2367   1.396       .  A
C2367      H2373   1.082       .  S
N2368      H2376   1.045   1_554  S
C2369      C2370   1.393       .  A
C2370      H2374   1.082       .  S
C2377      C2382   1.384       .  A
C2377      C2378   1.406       .  A
C2377      N2383   1.348       .  A
C2378      C2379   1.406       .  A
C2378      H2389   1.082       .  S
C2379      C2388   1.381       .  A
C2379      C2380   1.385       .  A
C2380      C2381   1.404       .  A
C2380      N2386   1.346       .  A
C2381      C2382   1.404       .  A
C2381      H2390   1.082       .  S
C2382      C2385   1.377       .  A
N2383      C2384   1.357       .  A
N2383      H2393   1.044       .  S
C2384      C2385   1.396       .  A
C2385      H2391   1.082       .  S
N2386      C2387   1.356       .  A
N2386      H2394   1.045       .  S
C2387      C2388   1.396       .  A
C2388      H2392   1.082       .  S
C2395      C2400   1.384       .  A
C2395      C2396   1.405       .  A
C2395      N2401   1.345       .  A
C2396      C2397   1.404       .  A
C2396      H2407   1.082       .  S
C2397      C2406   1.381       .  A
C2397      C2398   1.384       .  A
C2398      C2399   1.406       .  A
C2398      N2404   1.346       .  A
C2399      C2400   1.405       .  A
C2399      H2408   1.082       .  S
C2400      C2403   1.382       .  A
N2401      C2402   1.357       .  A
N2401      H2411   1.044       .  S
C2402      C2403   1.396       .  A
C2403      H2409   1.082       .  S
N2404      C2405   1.357       .  A
N2404      H2412   1.045       .  S
C2405      C2406   1.396       .  A
C2406      H2410   1.082       .  S
C2413      C2418   1.385       .  A
C2413      C2414   1.405       .  A
C2413      N2419   1.347       .  A
C2414      C2415   1.405       .  A
C2414      H2425   1.082       .  S
C2415      C2424   1.378       .  A
C2415      C2416   1.385       .  A
C2416      C2417   1.405       .  A
C2416      N2422   1.347       .  A
C2417      C2418   1.405       .  A
C2417      H2426   1.082       .  S
C2418      C2421   1.378       .  A
N2419      C2420   1.356       .  A
N2419      H2429   1.045       .  S
C2420      C2421   1.395       .  A
C2421      H2427   1.082       .  S
N2422      C2423   1.356       .  A
N2422      H2430   1.044       .  S
C2423      C2424   1.395       .  A
C2424      H2428   1.082       .  S
C2431      C2436   1.385       .  A
C2431      C2432   1.402       .  A
C2431      N2437   1.344       .  A
C2432      C2433   1.401       .  A
C2432      H2443   1.082       .  S
C2433      C2442   1.374       .  A
C2433      C2434   1.385       .  A
C2434      C2435   1.403       .  A
C2434      N2440   1.346       .  A
C2435      C2436   1.404       .  A
C2435      H2444   1.082       .  S
C2436      C2439   1.377       .  A
N2437      C2438   1.355       .  A
N2437      H2447   1.045       .  S
C2438      C2439   1.394       .  A
C2439      H2445   1.082       .  S
N2440      C2441   1.355       .  A
N2440      H2448   1.045       .  S
C2441      C2442   1.393       .  A
C2442      H2446   1.083       .  S
C2449      C2454   1.385       .  A
C2449      C2450   1.402       .  A
C2449      N2455   1.342       .  A
C2450      C2451   1.402       .  A
C2450      H2461   1.082       .  S
C2451      C2460   1.377       .  A
C2451      C2452   1.385       .  A
C2452      C2453   1.406       .  A
C2452      N2458   1.346       .  A
C2453      C2454   1.405       .  A
C2453      H2462   1.082       .  S
C2454      C2457   1.381       .  A
N2455      C2456   1.355       .  A
N2455      H2465   1.045       .  S
C2456      C2457   1.396       .  A
C2457      H2463   1.082       .  S
N2458      C2459   1.356       .  A
N2458      H2466   1.045       .  S
C2459      C2460   1.394       .  A
C2460      H2464   1.082       .  S
C2467      C2472   1.385       .  A
C2467      C2468   1.405       .  A
C2467      N2473   1.346       .  A
C2468      C2469   1.404       .  A
C2468      H2479   1.082       .  S
C2469      C2478   1.379       .  A
C2469      C2470   1.385       .  A
C2470      C2471   1.403       .  A
C2470      N2476   1.344       .  A
C2471      C2472   1.403       .  A
C2471      H2480   1.082       .  S
C2472      C2475   1.377       .  A
N2473      C2474   1.355       .  A
N2473      H2483   1.045       .  S
C2474      C2475   1.395       .  A
C2475      H2481   1.082       .  S
N2476      C2477   1.354       .  A
N2476      H2484   1.045       .  S
C2477      C2478   1.396       .  A
C2478      H2482   1.082       .  S
C2485      C2490   1.385       .  A
C2485      C2486   1.401       .  A
C2485      N2491   1.341       .  A
C2486      C2487   1.400       .  A
C2486      H2497   1.082       .  S
C2487      C2496   1.376       .  A
C2487      C2488   1.385       .  A
C2488      C2489   1.403       .  A
C2488      N2494   1.342       .  A
C2489      C2490   1.402       .  A
C2489      H2498   1.082       .  S
C2490      C2493   1.378       .  A
N2491      C2492   1.354       .  A
N2491      H2501   1.044       .  S
C2492      C2493   1.393       .  A
C2493      H2499   1.082       .  S
N2494      C2495   1.355       .  A
N2494      H2502   1.045       .  S
C2495      C2496   1.393       .  A
C2496      H2500   1.082       .  S
C2503      C2508   1.385       .  A
C2503      C2504   1.406       .  A
C2503      N2509   1.345       .  A
C2504      C2505   1.405       .  A
C2504      H2515   1.082       .  S
C2505      C2514   1.382       .  A
C2505      C2506   1.385       .  A
C2506      C2507   1.403       .  A
C2506      N2512   1.342       .  A
C2507      C2508   1.401       .  A
C2507      H2516   1.082       .  S
C2508      C2511   1.378       .  A
N2509      C2510   1.356       .  A
N2509      H2519   1.045       .  S
C2510      C2511   1.393       .  A
C2511      H2517   1.082       .  S
N2512      C2513   1.355       .  A
N2512      H2520   1.045       .  S
C2513      C2514   1.396       .  A
C2514      H2518   1.082       .  S
C2521      C2526   1.386       .  A
C2521      C2522   1.400       .  A
C2521      N2527   1.343       .  A
C2522      C2523   1.400       .  A
C2522      H2533   1.082       .  S
C2523      C2532   1.372       .  A
C2523      C2524   1.385       .  A
C2524      C2525   1.403       .  A
C2524      N2530   1.345       .  A
C2525      C2526   1.403       .  A
C2525      H2534   1.082       .  S
C2526      C2529   1.376       .  A
N2527      C2528   1.353       .  A
N2527      H2537   1.045       .  S
C2528      C2529   1.395       .  A
C2529      H2535   1.082       .  S
N2530      C2531   1.355       .  A
N2530      H2538   1.045       .  S
C2531      C2532   1.392       .  A
C2532      H2536   1.082       .  S
C2539      C2544   1.385       .  A
C2539      C2540   1.404       .  A
C2539      N2545   1.343       .  A
C2540      C2541   1.403       .  A
C2540      H2551   1.082       .  S
C2541      C2550   1.379       .  A
C2541      C2542   1.385       .  A
C2542      C2543   1.403       .  A
C2542      N2548   1.343       .  A
C2543      C2544   1.402       .  A
C2543      H2552   1.082       .  S
C2544      C2547   1.379       .  A
N2545      C2546   1.356       .  A
N2545      H2555   1.044       .  S
C2546      C2547   1.393       .  A
C2547      H2553   1.082       .  S
N2548      C2549   1.354       .  A
N2548      H2556   1.044       .  S
C2549      C2550   1.395       .  A
C2550      H2554   1.082       .  S
C2557      C2562   1.385       .  A
C2557      C2558   1.406       .  A
C2557      N2563   1.343       .  A
C2558      C2559   1.404   1_655  A
C2558      H2569   1.082       .  S
C2559      C2568   1.382       .  A
C2559      C2560   1.385       .  A
C2560      C2561   1.403       .  A
C2560      N2566   1.341       .  A
C2561      C2562   1.401   1_455  A
C2561      H2570   1.082       .  S
C2562      C2565   1.379       .  A
N2563      C2564   1.356       .  A
N2563      H2573   1.045       .  S
C2564      C2565   1.393       .  A
C2565      H2571   1.082       .  S
N2566      C2567   1.354       .  A
N2566      H2574   1.045       .  S
C2567      C2568   1.395       .  A
C2568      H2572   1.082       .  S
C2575      C2580   1.385       .  A
C2575      C2576   1.403       .  A
C2575      N2581   1.342       .  A
C2576      C2577   1.402       .  A
C2576      H2587   1.082       .  S
C2577      C2586   1.380       .  A
C2577      C2578   1.385       .  A
C2578      C2579   1.400       .  A
C2578      N2584   1.338       .  A
C2579      C2580   1.398       .  A
C2579      H2588   1.083       .  S
C2580      C2583   1.374       .  A
N2581      C2582   1.354       .  A
N2581      H2591   1.044       .  S
C2582      C2583   1.392       .  A
C2583      H2589   1.083       .  S
N2584      C2585   1.353       .  A
N2584      H2592   1.045       .  S
C2585      C2586   1.394       .  A
C2586      H2590   1.082       .  S
C2593      C2598   1.384       .  A
C2593      C2594   1.410       .  A
C2593      N2599   1.346       .  A
C2594      C2595   1.408       .  A
C2594      H2605   1.082       .  S
C2595      C2604   1.386       .  A
C2595      C2596   1.385       .  A
C2596      C2597   1.396       .  A
C2596      N2602   1.335       .  A
C2597      C2598   1.394       .  A
C2597      H2606   1.083       .  S
C2598      C2601   1.371       .  A
N2599      C2600   1.358       .  A
N2599      H2609   1.045       .  S
C2600      C2601   1.389       .  A
C2601      H2607   1.083       .  S
N2602      C2603   1.350       .  A
N2602      H2610   1.046       .  S
C2603      C2604   1.399       .  A
C2604      H2608   1.082       .  S
C2611      C2616   1.384       .  A
C2611      C2612   1.406       .  A
C2611      N2617   1.345       .  A
C2612      C2613   1.405       .  A
C2612      H2623   1.082       .  S
C2613      C2622   1.382       .  A
C2613      C2614   1.385       .  A
C2614      C2615   1.402       .  A
C2615      C2616   1.400       .  A
C2615      H2624   1.082       .  S
C2616      C2619   1.378       .  A
N2617      C2618   1.357       .  A
N2617      H2627   1.045       .  S
C2618      C2619   1.392       .  A
C2619      H2625   1.082       .  S
N2620      C2621   1.357       .  A
N2620      H2628   1.045       .  S
C2622      H2626   1.082       .  S
C2629      C2634   1.385       .  A
C2629      C2630   1.404   1_655  A
C2629      N2635   1.344       .  A
C2630      C2631   1.403       .  A
C2630      H2641   1.082       .  S
C2631      C2640   1.379       .  A
C2631      C2632   1.385       .  A
C2632      C2633   1.401   1_455  A
C2632      N2638   1.341       .  A
C2633      C2634   1.400       .  A
C2633      H2642   1.082       .  S
C2634      C2637   1.376       .  A
N2635      C2636   1.355       .  A
N2635      H2645   1.045       .  S
C2636      C2637   1.393       .  A
C2637      H2643   1.083       .  S
N2638      C2639   1.353       .  A
N2638      H2646   1.045       .  S
C2639      C2640   1.395       .  A
C2640      H2644   1.083       .  S
C2647      C2652   1.385       .  A
C2647      C2648   1.402       .  A
C2647      N2653   1.342       .  A
C2648      C2649   1.402       .  A
C2648      H2659   1.082       .  S
C2649      C2658   1.377       .  A
C2649      C2650   1.385       .  A
C2650      C2651   1.406       .  A
C2650      N2656   1.346       .  A
C2651      C2652   1.405       .  A
C2651      H2660   1.082       .  S
C2652      C2655   1.381       .  A
N2653      C2654   1.354       .  A
N2653      H2663   1.045       .  S
C2654      C2655   1.395       .  A
C2655      H2661   1.082       .  S
N2656      C2657   1.356       .  A
N2656      H2664   1.045       .  S
C2657      C2658   1.394       .  A
C2658      H2662   1.082       .  S
C2665      C2670   1.385       .  A
C2665      C2666   1.403       .  A
C2665      N2671   1.343       .  A
C2666      C2667   1.401       .  A
C2666      H2677   1.082       .  S
C2667      C2676   1.377       .  A
C2667      C2668   1.385       .  A
C2668      C2669   1.404       .  A
C2668      N2674   1.343       .  A
C2669      C2670   1.403       .  A
C2669      H2678   1.082       .  S
C2670      C2673   1.379       .  A
N2671      C2672   1.355       .  A
N2671      H2681   1.045       .  S
C2672      C2673   1.395       .  A
C2673      H2679   1.082       .  S
N2674      C2675   1.355       .  A
N2674      H2682   1.045       .  S
C2675      C2676   1.393       .  A
C2676      H2680   1.082       .  S
C2683      C2688   1.385       .  A
C2683      C2684   1.402       .  A
C2683      N2689   1.345       .  A
C2684      C2685   1.403       .  A
C2684      H2695   1.082       .  S
C2685      C2694   1.375       .  A
C2685      C2686   1.385       .  A
C2686      C2687   1.404       .  A
C2686      N2692   1.346       .  A
C2687      C2688   1.404       .  A
C2687      H2696   1.082       .  S
C2688      C2691   1.377       .  A
N2689      C2690   1.355       .  A
N2689      H2699   1.044       .  S
C2690      C2691   1.395       .  A
C2691      H2697   1.082       .  S
N2692      C2693   1.355       .  A
N2692      H2700   1.045       .  S
C2693      C2694   1.394       .  A
C2694      H2698   1.082       .  S
C2701      C2706   1.385       .  A
C2701      C2702   1.406       .  A
C2701      N2707   1.347       .  A
C2702      C2703   1.406       .  A
C2702      H2713   1.082       .  S
C2703      C2712   1.381       .  A
C2703      C2704   1.385       .  A
C2704      C2705   1.401       .  A
C2704      N2710   1.342       .  A
C2705      C2706   1.401       .  A
C2706      C2709   1.375       .  A
N2707      C2708   1.356       .  A
N2707      H2717   1.044       .  S
C2708      C2709   1.393       .  A
N2710      C2711   1.354       .  A
N2710      H2718   1.045       .  S
C2711      C2712   1.396       .  A
C2712      H2716   1.082       .  S
C2719      C2724   1.385       .  A
C2719      C2720   1.404       .  A
C2719      N2725   1.345       .  A
C2720      C2721   1.404       .  A
C2720      H2731   1.082       .  S
C2721      C2730   1.378       .  A
C2721      C2722   1.385       .  A
C2722      C2723   1.401       .  A
C2722      N2728   1.343       .  A
C2723      C2724   1.401       .  A
C2723      H2732   1.082       .  S
C2724      C2727   1.374       .  A
N2725      C2726   1.355       .  A
N2725      H2735   1.045       .  S
C2726      C2727   1.392       .  A
C2727      H2733   1.082       .  S
N2728      C2729   1.354       .  A
N2728      H2736   1.045       .  S
C2729      C2730   1.395       .  A
C2730      H2734   1.082       .  S
C2737      C2742   1.385       .  A
C2737      C2738   1.402       .  A
C2737      N2743   1.343       .  A
C2738      C2739   1.402       .  A
C2738      H2749   1.082       .  S
C2739      C2748   1.376       .  A
C2739      C2740   1.385       .  A
C2740      C2741   1.404       .  A
C2740      N2746   1.345       .  A
C2741      C2742   1.404       .  A
C2741      H2750   1.082       .  S
C2742      C2745   1.378       .  A
N2743      C2744   1.354       .  A
N2743      H2753   1.045       .  S
C2744      C2745   1.395       .  A
C2745      H2751   1.082       .  S
N2746      C2747   1.355       .  A
N2746      H2754   1.045       .  S
C2747      C2748   1.394       .  A
C2748      H2752   1.083       .  S
C2755      C2760   1.385       .  A
C2755      C2756   1.403       .  A
C2755      N2761   1.342       .  A
C2756      C2757   1.401       .  A
C2756      H2767   1.082       .  S
C2757      C2766   1.377       .  A
C2757      C2758   1.385       .  A
C2758      C2759   1.404       .  A
C2759      C2760   1.403       .  A
C2759      H2768   1.082       .  S
C2760      C2763   1.379       .  A
N2761      C2762   1.355       .  A
N2761      H2771   1.044       .  S
C2762      C2763   1.394       .  A
C2763      H2769   1.082       .  S
N2764      H2772   1.045       .  S
C2765      C2766   1.393       .  A
C2766      H2770   1.082       .  S
C2773      C2778   1.385       .  A
C2773      C2774   1.404       .  A
C2773      N2779   1.343       .  A
C2774      C2775   1.403       .  A
C2774      H2785   1.082       .  S
C2775      C2784   1.379       .  A
C2775      C2776   1.385       .  A
C2776      C2777   1.400       .  A
C2776      N2782   1.340       .  A
C2777      C2778   1.398       .  A
C2777      H2786   1.082       .  S
C2778      C2781   1.374       .  A
N2779      C2780   1.356       .  A
N2779      H2789   1.044       .  S
C2780      C2781   1.391       .  A
C2781      H2787   1.082       .  S
N2782      C2783   1.353       .  A
N2782      H2790   1.044       .  S
C2783      C2784   1.394       .  A
C2784      H2788   1.082       .  S
C2791      C2796   1.385       .  A
C2791      C2792   1.401       .  A
C2791      N2797   1.340       .  A
C2792      C2793   1.399       .  A
C2792      H2803   1.082       .  S
C2793      C2802   1.375       .  A
C2793      C2794   1.385       .  A
C2794      C2795   1.407       .  A
C2794      N2800   1.346       .  A
C2795      C2796   1.407       .  A
C2795      H2804   1.082       .  S
C2796      C2799   1.384       .  A
N2797      C2798   1.353       .  A
N2797      H2807   1.044       .  S
C2798      C2799   1.397       .  A
C2799      H2805   1.082       .  S
N2800      C2801   1.356       .  A
N2800      H2808   1.045       .  S
C2801      C2802   1.393       .  A
C2802      H2806   1.083       .  S
C2809      C2814   1.385       .  A
C2809      C2810   1.404       .  A
C2809      N2815   1.346       .  A
C2810      C2811   1.404       .  A
C2810      H2821   1.082       .  S
C2811      C2820   1.377       .  A
C2811      C2812   1.386       .  A
C2812      C2813   1.400       .  A
C2812      N2818   1.342       .  A
C2813      C2814   1.400       .  A
C2813      H2822   1.082       .  S
C2814      C2817   1.373       .  A
N2815      C2816   1.356       .  A
N2815      H2825   1.045       .  S
C2816      C2817   1.392       .  A
C2817      H2823   1.082       .  S
N2818      C2819   1.352       .  A
N2818      H2826   1.045       .  S
C2819      C2820   1.395       .  A
C2820      H2824   1.083       .  S
C2827      C2832   1.384       .  A
C2827      C2828   1.407       .  A
C2827      N2833   1.345       .  A
C2828      C2829   1.406       .  A
C2828      H2839   1.082       .  S
C2829      C2838   1.384       .  A
C2829      C2830   1.385       .  A
C2830      C2831   1.400       .  A
C2830      N2836   1.339       .  A
C2831      C2832   1.398       .  A
C2831      H2840   1.082       .  S
C2832      C2835   1.375       .  A
N2833      C2834   1.357       .  A
N2833      H2843   1.045       .  S
C2834      C2835   1.391       .  A
C2835      H2841   1.082       .  S
N2836      C2837   1.354       .  A
N2836      H2844   1.044       .  S
C2837      C2838   1.397       .  A
C2838      H2842   1.082       .  S
C2845      C2850   1.384       .  A
C2845      C2846   1.406       .  A
C2845      N2851   1.346       .  A
C2846      C2847   1.406       .  A
C2846      H2857   1.082       .  S
C2847      C2856   1.382       .  A
C2847      C2848   1.384       .  A
C2848      C2849   1.404       .  A
C2848      N2854   1.344       .  A
C2849      C2850   1.403       .  A
C2849      H2858   1.082       .  S
C2850      C2853   1.378       .  A
N2851      C2852   1.356       .  A
N2851      H2861   1.044       .  S
C2852      C2853   1.395       .  A
C2853      H2859   1.082       .  S
N2854      C2855   1.356       .  A
N2854      H2862   1.044       .  S
C2855      C2856   1.397       .  A
C2856      H2860   1.082       .  S
C2863      C2868   1.385       .  A
C2863      C2864   1.404   1_565  A
C2863      N2869   1.344       .  A
C2864      C2865   1.403       .  A
C2864      H2875   1.082       .  S
C2865      C2874   1.377       .  A
C2865      C2866   1.385       .  A
C2866      C2867   1.403   1_545  A
C2866      N2872   1.344       .  A
C2867      C2868   1.403       .  A
C2867      H2876   1.082       .  S
C2868      C2871   1.378       .  A
N2869      C2870   1.356       .  A
N2869      H2879   1.045       .  S
C2870      C2871   1.394       .  A
C2871      H2877   1.082       .  S
N2872      C2873   1.355       .  A
N2872      H2880   1.045       .  S
C2873      C2874   1.394       .  A
C2874      H2878   1.082       .  S
C2881      C2886   1.385       .  A
C2881      C2882   1.405   1_565  A
C2881      N2887   1.347       .  A
C2882      C2883   1.405       .  A
C2882      H2893   1.082       .  S
C2883      C2892   1.379       .  A
C2883      C2884   1.385       .  A
C2884      C2885   1.403   1_545  A
C2884      N2890   1.345       .  A
C2885      C2886   1.403       .  A
C2885      H2894   1.082       .  S
C2886      C2889   1.376       .  A
N2887      C2888   1.357       .  A
N2887      H2897   1.045       .  S
C2888      C2889   1.394       .  A
C2889      H2895   1.082       .  S
N2890      C2891   1.355       .  A
N2890      H2898   1.045       .  S
C2891      C2892   1.395       .  A
C2892      H2896   1.082       .  S
C2899      C2904   1.385       .  A
C2899      C2900   1.404       .  A
C2899      N2905   1.345       .  A
C2900      C2901   1.404       .  A
C2900      H2911   1.082       .  S
C2901      C2902   1.385       .  A
C2902      C2903   1.402       .  A
C2902      N2908   1.344       .  A
C2903      C2904   1.402       .  A
C2903      H2912   1.082       .  S
C2904      C2907   1.376       .  A
N2905      C2906   1.355       .  A
N2905      H2915   1.042       .  S
C2906      C2907   1.394       .  A
C2907      H2913   1.082       .  S
N2908      H2916   1.043       .  S
C2909      C2910   1.394       .  A
C2910      H2914   1.082       .  S
C2917      C2922   1.385       .  A
C2917      C2918   1.404       .  A
C2917      N2923   1.343       .  A
C2918      C2919   1.402       .  A
C2918      H2929   1.082       .  S
C2919      C2928   1.379       .  A
C2919      C2920   1.384       .  A
C2920      C2921   1.403       .  A
C2920      N2926   1.342       .  A
C2921      C2922   1.402       .  A
C2921      H2930   1.082       .  S
C2922      C2925   1.379       .  A
N2923      C2924   1.356       .  A
N2923      H2933   1.045       .  S
C2924      C2925   1.394       .  A
C2925      H2931   1.082       .  S
N2926      C2927   1.355       .  A
N2926      H2934   1.045       .  S
C2927      C2928   1.394       .  A
C2928      H2932   1.082       .  S
C2935      C2940   1.385       .  A
C2935      C2936   1.401       .  A
C2935      N2941   1.340       .  A
C2936      C2937   1.399       .  A
C2936      H2947   1.082       .  S
C2937      C2946   1.376       .  A
C2937      C2938   1.385       .  A
C2938      C2939   1.405       .  A
C2938      N2944   1.344       .  A
C2939      C2940   1.404       .  A
C2939      H2948   1.082       .  S
C2940      C2943   1.381       .  A
N2941      C2942   1.354       .  A
N2941      H2951   1.045       .  S
C2942      C2943   1.395       .  A
C2943      H2949   1.082       .  S
N2944      C2945   1.356       .  A
N2944      H2952   1.045       .  S
C2945      C2946   1.392       .  A
C2946      H2950   1.082       .  S
C2953      C2958   1.385       .  A
C2953      C2954   1.405       .  A
C2953      N2959   1.346       .  A
C2954      C2955   1.405       .  A
C2954      H2965   1.082       .  S
C2955      C2964   1.379       .  A
C2955      C2956   1.385       .  A
C2956      C2957   1.402       .  A
C2956      N2962   1.344       .  A
C2957      C2958   1.402       .  A
C2957      H2966   1.082       .  S
C2958      C2961   1.377       .  A
N2959      C2960   1.356       .  A
N2959      H2969   1.044       .  S
C2960      C2961   1.394       .  A
C2961      H2967   1.082       .  S
N2962      C2963   1.354       .  A
N2962      H2970   1.045       .  S
C2963      C2964   1.397       .  A
C2964      H2968   1.083       .  S
C2971      C2976   1.384       .  A
C2971      C2972   1.411       .  A
C2971      N2977   1.350       .  A
C2972      C2973   1.411       .  A
C2972      H2983   1.082       .  S
C2973      C2982   1.388       .  A
C2973      C2974   1.385       .  A
C2974      C2975   1.399       .  A
C2974      N2980   1.340       .  A
C2975      C2976   1.398       .  A
C2975      H2984   1.082       .  S
C2976      C2979   1.374       .  A
N2977      C2978   1.359       .  A
N2977      H2987   1.044       .  S
C2978      C2979   1.391       .  A
C2979      H2985   1.082       .  S
N2980      C2981   1.353       .  A
N2980      H2988   1.045       .  S
C2981      C2982   1.400       .  A
C2982      H2986   1.082       .  S
C2989      C2994   1.385       .  A
C2989      C2990   1.407       .  A
C2989      N2995   1.348       .  A
C2990      C2991   1.406       .  A
C2990      H3001   1.082       .  S
C2991      C3000   1.381       .  A
C2991      C2992   1.385       .  A
C2992      C2993   1.401       .  A
C2992      N2998   1.341       .  A
C2993      C2994   1.400       .  A
C2993      H3002   1.083       .  S
C2994      C2997   1.374       .  A
N2995      C2996   1.357       .  A
N2995      H3005   1.044       .  S
C2996      C2997   1.394       .  A
C2997      H3003   1.083       .  S
N2998      C2999   1.353       .  A
N2998      H3006   1.045       .  S
C2999      C3000   1.396       .  A
C3000      H3004   1.082       .  S
C3007      C3012   1.385       .  A
C3007      C3008   1.404       .  A
C3007      N3013   1.344       .  A
C3008      C3009   1.403       .  A
C3008      H3019   1.082       .  S
C3009      C3018   1.379       .  A
C3009      C3010   1.385       .  A
C3010      C3011   1.405       .  A
C3010      N3016   1.344       .  A
C3011      C3012   1.404       .  A
C3011      H3020   1.082       .  S
C3012      C3015   1.380       .  A
N3013      C3014   1.355       .  A
N3013      H3023   1.045       .  S
C3014      C3015   1.396       .  A
C3015      H3021   1.082       .  S
N3016      C3017   1.356       .  A
N3016      H3024   1.044       .  S
C3017      C3018   1.395       .  A
C3018      H3022   1.082       .  S
C3025      C3030   1.385       .  A
C3025      C3026   1.405       .  A
C3025      N3031   1.344       .  A
C3026      C3027   1.404       .  A
C3026      H3037   1.082   1_556  S
C3027      C3036   1.380   1_556  A
C3027      C3028   1.385       .  A
C3028      C3029   1.401       .  A
C3028      N3034   1.341       .  A
C3029      C3030   1.400       .  A
C3029      H3038   1.082       .  S
C3030      C3033   1.376       .  A
N3031      C3032   1.356       .  A
N3031      H3041   1.045       .  S
C3032      C3033   1.393       .  A
C3033      H3039   1.082       .  S
N3034      C3035   1.354       .  A
N3034      H3042   1.045       .  S
C3035      C3036   1.395   1_556  A
C3036      H3040   1.082       .  S
C3043      N3049   1.341       .  A
C3044      C3045   1.400       .  A
C3045      C3054   1.377       .  A
C3045      C3046   1.385       .  A
C3046      C3047   1.405       .  A
C3046      N3052   1.343       .  A
C3047      C3048   1.404       .  A
C3047      H3056   1.082       .  S
C3048      C3051   1.381       .  A
N3049      C3050   1.355       .  A
N3049      H3059   1.045       .  S
C3051      H3057   1.082       .  S
N3052      C3053   1.356       .  A
N3052      H3060   1.045       .  S
C3053      C3054   1.392       .  A
C3054      H3058   1.082       .  S
C3061      C3066   1.385       .  A
C3061      C3062   1.403       .  A
C3061      N3067   1.343       .  A
C3062      C3063   1.403       .  A
C3062      H3073   1.082       .  S
C3063      C3072   1.377       .  A
C3063      C3064   1.385       .  A
C3064      C3065   1.401       .  A
C3064      N3070   1.343       .  A
C3065      C3066   1.401       .  A
C3065      H3074   1.082       .  S
C3066      C3069   1.375       .  A
N3067      C3068   1.354       .  A
N3067      H3077   1.044       .  S
C3068      C3069   1.393       .  A
C3069      H3075   1.082       .  S
N3070      C3071   1.354       .  A
N3070      H3078   1.045       .  S
C3071      C3072   1.395       .  A
C3072      H3076   1.082       .  S
C3079      C3084   1.385       .  A
C3079      C3080   1.403       .  A
C3079      N3085   1.342       .  A
C3080      C3081   1.401       .  A
C3080      H3091   1.082       .  S
C3081      C3090   1.378       .  A
C3081      C3082   1.385       .  A
C3082      C3083   1.406       .  A
C3082      N3088   1.345       .  A
C3083      C3084   1.404       .  A
C3083      H3092   1.082       .  S
C3084      C3087   1.382       .  A
N3085      C3086   1.355       .  A
N3085      H3095   1.045       .  S
C3086      C3087   1.396       .  A
C3087      H3093   1.082       .  S
N3088      C3089   1.356       .  A
N3088      H3096   1.045       .  S
C3089      C3090   1.393       .  A
C3090      H3094   1.082       .  S
C3097      C3102   1.384       .  A
C3097      C3098   1.408   1_455  A
C3097      N3103   1.347       .  A
C3098      C3099   1.407       .  A
C3098      H3109   1.082       .  S
C3099      C3108   1.383       .  A
C3099      C3100   1.385       .  A
C3100      C3101   1.400       .  A
C3100      N3106   1.340       .  A
C3101      C3102   1.399   1_655  A
C3101      H3110   1.082       .  S
C3102      C3105   1.374       .  A
N3103      C3104   1.357       .  A
N3103      H3113   1.044       .  S
C3104      C3105   1.393       .  A
C3105      H3111   1.082       .  S
N3106      C3107   1.353       .  A
N3106      H3114   1.044       .  S
C3107      C3108   1.397       .  A
C3108      H3112   1.082       .  S
C3115      C3120   1.385       .  A
C3115      C3116   1.401       .  A
C3115      N3121   1.341       .  A
C3116      C3117   1.399       .  A
C3116      H3127   1.082       .  S
C3117      C3126   1.376       .  A
C3117      C3118   1.385       .  A
C3118      C3119   1.406       .  A
C3118      N3124   1.344       .  A
C3119      C3120   1.405       .  A
C3119      H3128   1.082       .  S
C3120      C3123   1.381       .  A
N3121      C3122   1.353       .  A
N3121      H3131   1.045       .  S
C3122      C3123   1.396       .  A
C3123      H3129   1.082       .  S
N3124      C3125   1.356       .  A
N3124      H3132   1.044       .  S
C3125      C3126   1.391       .  A
C3133      C3138   1.385       .  A
C3133      C3134   1.401       .  A
C3133      N3139   1.343       .  A
C3134      C3135   1.401       .  A
C3134      H3145   1.082       .  S
C3135      C3144   1.375       .  A
C3135      C3136   1.385       .  A
C3136      C3137   1.403       .  A
C3136      N3142   1.344       .  A
C3137      C3138   1.403       .  A
C3137      H3146   1.082       .  S
C3138      C3141   1.377       .  A
N3139      C3140   1.354       .  A
C3140      C3141   1.395       .  A
C3141      H3147   1.082       .  S
N3142      C3143   1.355       .  A
N3142      H3150   1.045       .  S
C3143      C3144   1.393       .  A
C3144      H3148   1.082       .  S
C3151      C3156   1.385       .  A
C3151      C3152   1.402       .  A
C3151      N3157   1.341       .  A
C3152      C3153   1.400       .  A
C3152      H3163   1.082       .  S
C3153      C3162   1.376       .  A
C3153      C3154   1.385       .  A
C3154      C3155   1.405       .  A
C3154      N3160   1.345       .  A
C3155      C3156   1.404       .  A
C3155      H3164   1.082       .  S
C3156      C3159   1.381       .  A
N3157      C3158   1.354       .  A
N3157      H3167   1.045       .  S
C3158      C3159   1.396       .  A
C3159      H3165   1.082       .  S
N3160      C3161   1.355       .  A
N3160      H3168   1.044       .  S
C3161      C3162   1.394       .  A
C3162      H3166   1.083       .  S
C3169      C3174   1.385       .  A
C3169      C3170   1.402       .  A
C3169      N3175   1.344       .  A
C3170      C3171   1.402       .  A
C3170      H3181   1.082       .  S
C3171      C3180   1.375       .  A
C3171      C3172   1.385       .  A
C3172      C3173   1.405       .  A
C3172      N3178   1.347       .  A
C3173      C3174   1.406       .  A
C3173      H3182   1.082       .  S
C3174      C3177   1.379       .  A
N3175      C3176   1.355       .  A
N3175      H3185   1.045       .  S
C3176      C3177   1.396       .  A
C3177      H3183   1.082       .  S
N3178      C3179   1.357       .  A
N3178      H3186   1.045       .  S
C3179      C3180   1.394       .  A
C3180      H3184   1.082       .  S
C3187      C3192   1.384       .  A
C3187      C3188   1.403       .  A
C3188      C3189   1.402       .  A
C3188      H3199   1.082       .  S
C3189      C3198   1.378       .  A
C3189      C3190   1.384       .  A
C3190      C3191   1.407       .  A
C3190      N3196   1.346       .  A
C3191      C3192   1.405       .  A
C3191      H3200   1.082       .  S
N3193      C3194   1.355       .  A
N3193      H3203   1.045       .  S
C3194      C3195   1.395       .  A
C3195      H3201   1.082       .  S
N3196      C3197   1.357       .  A
N3196      H3204   1.045       .  S
C3197      C3198   1.394       .  A
C3198      H3202   1.082       .  S
C3205      C3210   1.385       .  A
C3205      C3206   1.404       .  A
C3205      N3211   1.342       .  A
C3206      C3207   1.402       .  A
C3206      H3217   1.082       .  S
C3207      C3216   1.380       .  A
C3207      C3208   1.385       .  A
C3208      C3209   1.403       .  A
C3208      N3214   1.341       .  A
C3209      C3210   1.401       .  A
C3209      H3218   1.082       .  S
C3210      C3213   1.380       .  A
N3211      C3212   1.355       .  A
N3211      H3221   1.045       .  S
C3212      C3213   1.394       .  A
C3213      H3219   1.082       .  S
N3214      C3215   1.354       .  A
N3214      H3222   1.045       .  S
C3215      C3216   1.394       .  A
C3216      H3220   1.082       .  S
C3223      C3228   1.385       .  A
C3223      C3224   1.403       .  A
C3223      N3229   1.345       .  A
C3224      C3225   1.403       .  A
C3224      H3235   1.082   1_556  S
C3225      C3234   1.376       .  A
C3225      C3226   1.385       .  A
C3226      C3227   1.404       .  A
C3226      N3232   1.345       .  A
C3227      C3228   1.404       .  A
C3227      H3236   1.082       .  S
C3228      C3231   1.377       .  A
N3229      C3230   1.355       .  A
C3230      C3231   1.395       .  A
C3231      H3237   1.082       .  S
N3232      C3233   1.355       .  A
N3232      H3240   1.045       .  S
C3233      C3234   1.394       .  A
C3234      H3238   1.082       .  S
C3241      C3246   1.386       .  A
C3241      C3242   1.401       .  A
C3241      N3247   1.342       .  A
C3242      C3243   1.400       .  A
C3242      H3253   1.082       .  S
C3243      C3252   1.373       .  A
C3243      C3244   1.386       .  A
C3244      C3245   1.401       .  A
C3244      N3250   1.343       .  A
C3245      C3246   1.400       .  A
C3245      H3254   1.082       .  S
C3246      C3249   1.374       .  A
N3247      C3248   1.354       .  A
N3247      H3257   1.045       .  S
C3248      C3249   1.392       .  A
C3249      H3255   1.082       .  S
N3250      C3251   1.354       .  A
N3250      H3258   1.045       .  S
C3251      C3252   1.392       .  A
C3252      H3256   1.083       .  S
C3259      C3264   1.385       .  A
C3259      C3260   1.405       .  A
C3259      N3265   1.346       .  A
C3260      C3261   1.405       .  A
C3260      H3271   1.082       .  S
C3261      C3270   1.380       .  A
C3261      C3262   1.385       .  A
C3262      C3263   1.401       .  A
C3262      N3268   1.343       .  A
C3263      C3264   1.401       .  A
C3263      H3272   1.082       .  S
C3264      C3267   1.375       .  A
N3265      C3266   1.356       .  A
N3265      H3275   1.044       .  S
C3266      C3267   1.393       .  A
C3267      H3273   1.082       .  S
N3268      C3269   1.354       .  A
N3268      H3276   1.045       .  S
C3269      C3270   1.396       .  A
C3270      H3274   1.082       .  S
C3277      C3278   1.406   1_554  A
C3278      C3279   1.406       .  A
C3278      H3289   1.082       .  S
C3279      C3288   1.382       .  A
C3279      C3280   1.385       .  A
C3280      C3281   1.400       .  A
C3280      N3286   1.340       .  A
C3282      C3285   1.376       .  A
N3283      C3284   1.357       .  A
N3283      H3293   1.045       .  S
C3284      C3285   1.394       .  A
C3285      H3291   1.082       .  S
N3286      C3287   1.353       .  A
N3286      H3294   1.045       .  S
C3287      C3288   1.396       .  A
C3288      H3292   1.082       .  S
C3295      C3300   1.385       .  A
C3295      C3296   1.405       .  A
C3295      N3301   1.346       .  A
C3296      C3297   1.405   1_565  A
C3296      H3307   1.082       .  S
C3297      C3306   1.381       .  A
C3297      C3298   1.384       .  A
C3298      C3299   1.405   1_545  A
C3298      N3304   1.346       .  A
C3299      C3300   1.404       .  A
C3299      H3308   1.082       .  S
C3300      C3303   1.379       .  A
N3301      C3302   1.355       .  A
N3301      H3311   1.045       .  S
C3302      C3303   1.396       .  A
C3303      H3309   1.082       .  S
N3304      C3305   1.356       .  A
N3304      H3312   1.044       .  S
C3305      C3306   1.396       .  A
C3306      H3310   1.082       .  S
C3313      C3318   1.385       .  A
C3313      C3314   1.403       .  A
C3313      N3319   1.345       .  A
C3314      C3315   1.403       .  A
C3314      H3325   1.082       .  S
C3315      C3324   1.377       .  A
C3315      C3316   1.385       .  A
C3316      C3317   1.403       .  A
C3316      N3322   1.344   1_556  A
C3317      C3318   1.403       .  A
C3317      H3326   1.082   1_556  S
C3318      C3321   1.377       .  A
N3319      C3320   1.355       .  A
N3319      H3329   1.045       .  S
C3320      C3321   1.395       .  A
C3321      H3327   1.082       .  S
N3322      C3323   1.355   1_554  A
C3323      C3324   1.394       .  A
C3324      H3328   1.082       .  S
C3331      C3336   1.384       .  A
C3331      C3332   1.406       .  A
C3331      N3337   1.345       .  A
C3332      C3333   1.405       .  A
C3332      H3343   1.082       .  S
C3333      C3342   1.381       .  A
C3333      C3334   1.385       .  A
C3334      C3335   1.404       .  A
C3334      N3340   1.343       .  A
C3335      C3336   1.402       .  A
C3335      H3344   1.082       .  S
C3336      C3339   1.379       .  A
N3337      C3338   1.356       .  A
N3337      H3347   1.045       .  S
C3338      C3339   1.394       .  A
C3339      H3345   1.082       .  S
N3340      C3341   1.355       .  A
N3340      H3348   1.045       .  S
C3341      C3342   1.396       .  A
C3342      H3346   1.082       .  S
C3349      C3354   1.385       .  A
C3349      C3350   1.402       .  A
C3349      N3355   1.344       .  A
C3351      C3360   1.370       .  A
C3352      C3353   1.405       .  A
C3353      C3354   1.406       .  A
C3353      H3362   1.082       .  S
C3354      C3357   1.380       .  A
N3355      C3356   1.354       .  A
N3355      H3365   1.045       .  S
C3356      C3357   1.396       .  A
C3357      H3363   1.082       .  S
N3358      C3359   1.358       .  A
C3359      C3360   1.391       .  A
C3360      H3364   1.083       .  S
C3367      C3372   1.385       .  A
C3367      C3368   1.405       .  A
C3367      N3373   1.344       .  A
C3368      C3369   1.404       .  A
C3368      H3379   1.082       .  S
C3369      C3378   1.382       .  A
C3369      C3370   1.385       .  A
C3370      C3371   1.402       .  A
C3370      N3376   1.340       .  A
C3371      C3372   1.400       .  A
C3371      H3380   1.082       .  S
C3372      C3375   1.376       .  A
N3373      C3374   1.356       .  A
N3373      H3383   1.045       .  S
C3374      C3375   1.393       .  A
C3375      H3381   1.082       .  S
N3376      C3377   1.354       .  A
N3376      H3384   1.044       .  S
C3377      C3378   1.395       .  A
C3378      H3382   1.082       .  S
C3385      C3390   1.384       .  A
C3385      C3386   1.407   1_455  A
C3385      N3391   1.346       .  A
C3386      C3387   1.406       .  A
C3386      H3397   1.082       .  S
C3387      C3396   1.383       .  A
C3387      C3388   1.385       .  A
C3388      C3389   1.402       .  A
C3388      N3394   1.342       .  A
C3389      C3390   1.401   1_655  A
C3389      H3398   1.082       .  S
C3390      C3393   1.377       .  A
N3391      C3392   1.357       .  A
N3391      H3401   1.044       .  S
C3392      C3393   1.394       .  A
C3393      H3399   1.082       .  S
N3394      C3395   1.355       .  A
N3394      H3402   1.045       .  S
C3395      C3396   1.397       .  A
C3396      H3400   1.082       .  S
C3403      C3408   1.384       .  A
C3403      C3404   1.405       .  A
C3403      N3409   1.342       .  A
C3404      C3405   1.403       .  A
C3404      H3415   1.082       .  S
C3405      C3414   1.382       .  A
C3405      C3406   1.384       .  A
C3406      C3407   1.407       .  A
C3406      N3412   1.344       .  A
C3407      C3408   1.405       .  A
C3407      H3416   1.082       .  S
C3408      C3411   1.385       .  A
N3409      C3410   1.356       .  A
N3409      H3419   1.045       .  S
C3410      C3411   1.397       .  A
C3411      H3417   1.082       .  S
N3412      C3413   1.356       .  A
N3412      H3420   1.045       .  S
C3413      C3414   1.395       .  A
C3414      H3418   1.082       .  S
C3421      C3426   1.384       .  A
C3421      C3422   1.408       .  A
C3421      N3427   1.345       .  A
C3422      C3423   1.406       .  A
C3422      H3433   1.082       .  S
C3424      N3430   1.342       .  A
C3425      C3426   1.403       .  A
C3426      C3429   1.381       .  A
N3427      C3428   1.357       .  A
N3427      H3437   1.045       .  S
C3428      C3429   1.395       .  A
C3429      H3435   1.082       .  S
N3430      C3431   1.355       .  A
N3430      H3438   1.045       .  S
C3431      C3432   1.397       .  A
C3432      H3436   1.082       .  S
C3439      C3444   1.384       .  A
C3439      C3440   1.405       .  A
C3439      N3445   1.344       .  A
C3440      C3441   1.404       .  A
C3440      H3451   1.082       .  S
C3441      C3450   1.382       .  A
C3441      C3442   1.384       .  A
C3442      C3443   1.408       .  A
C3442      N3448   1.347       .  A
C3443      C3444   1.407       .  A
C3443      H3452   1.082       .  S
C3444      C3447   1.385       .  A
N3445      C3446   1.356       .  A
N3445      H3455   1.045       .  S
C3446      C3447   1.398       .  A
C3447      H3453   1.082       .  S
N3448      C3449   1.358       .  A
N3448      H3456   1.045       .  S
C3449      C3450   1.395       .  A
C3450      H3454   1.082       .  S
C3457      C3462   1.384       .  A
C3457      C3458   1.405       .  A
C3457      N3463   1.346       .  A
C3458      C3459   1.405       .  A
C3458      H3469   1.082       .  S
C3460      N3466   1.345       .  A
C3461      C3462   1.404       .  A
C3461      H3470   1.082       .  S
C3462      C3465   1.379       .  A
N3463      C3464   1.356       .  A
N3463      H3473   1.045       .  S
C3464      C3465   1.395       .  A
C3465      H3471   1.082       .  S
N3466      C3467   1.355       .  A
N3466      H3474   1.045       .  S
C3467      C3468   1.397       .  A
C3468      H3472   1.082       .  S
C3475      C3480   1.384       .  A
C3475      C3476   1.407       .  A
C3475      N3481   1.347       .  A
C3476      C3477   1.407       .  A
C3476      H3487   1.082       .  S
C3477      C3486   1.382       .  A
C3477      C3478   1.385       .  A
C3478      C3479   1.403       .  A
C3478      N3484   1.343       .  A
C3479      C3480   1.402       .  A
C3479      H3488   1.082       .  S
C3480      C3483   1.378       .  A
N3481      C3482   1.357       .  A
N3481      H3491   1.045       .  S
C3482      C3483   1.394       .  A
C3483      H3489   1.082       .  S
N3484      C3485   1.355       .  A
N3484      H3492   1.045       .  S
C3485      C3486   1.397       .  A
C3486      H3490   1.082       .  S
C3493      C3498   1.384       .  A
C3493      C3494   1.411       .  A
C3493      N3499   1.350       .  A
C3494      C3495   1.411   1_565  A
C3494      H3505   1.082       .  S
C3495      C3504   1.388       .  A
C3495      C3496   1.384       .  A
C3496      C3497   1.404   1_545  A
C3496      N3502   1.345       .  A
C3497      C3498   1.403       .  A
C3497      H3506   1.082       .  S
C3498      C3501   1.379       .  A
N3499      C3500   1.359       .  A
N3499      H3509   1.045       .  S
C3500      C3501   1.394       .  A
C3501      H3507   1.082       .  S
N3502      C3503   1.356       .  A
N3502      H3510   1.045       .  S
C3503      C3504   1.401       .  A
C3504      H3508   1.082       .  S
C3511      C3516   1.384       .  A
C3511      C3512   1.405       .  A
C3511      N3517   1.345       .  A
C3512      C3513   1.404       .  A
C3512      H3523   1.082       .  S
C3513      C3522   1.381       .  A
C3513      C3514   1.384       .  A
C3514      C3515   1.408       .  A
C3514      N3520   1.347       .  A
C3515      C3516   1.407       .  A
C3515      H3524   1.082       .  S
C3516      C3519   1.385       .  A
N3517      C3518   1.357       .  A
N3517      H3527   1.045       .  S
C3518      C3519   1.397       .  A
C3519      H3525   1.082       .  S
N3520      C3521   1.358       .  A
N3520      H3528   1.045       .  S
C3521      C3522   1.396       .  A
