geometry optimzed in LAMMPS
_audit_creation_date              2020-12-01 
_audit_creation_method            'lammps2cif' 
_symmetry_space_group_name_H-M    'P1' 
_symmetry_Int_Tables_number       1 
_symmetry_cell_setting            triclinic 
loop_ 
_symmetry_equiv_pos_as_xyz 
  x,y,z 
_cell_length_a                    47.33848471 
_cell_length_b                    47.11570131561075 
_cell_length_c                    34.67982503544916 
_cell_angle_alpha                 90.626641379314 
_cell_angle_beta                  89.62473104896047 
_cell_angle_gamma                 89.77354172044068 
loop_ 
_atom_site_label 
_atom_site_type_symbol 
_atom_site_fract_x 
_atom_site_fract_y 
_atom_site_fract_z 
_atom_site_charge 
O1          O  0.71598179  0.63781009  0.07679873    -0.57300
C2          C  0.74581143  0.58025998  0.00619641     0.75300
O3          O  0.78716976  0.60139894  0.13120560    -0.58500
C4          C  0.70523121  0.63807006  0.11034464     0.75300
C5          C  0.72428029  0.54273696  0.11213136     0.77700
Cd6        Cd  0.74642104  0.59619490  0.08652100     1.37500
O7          O  0.72813932  0.59771673  0.02036638    -0.57300
O8          O  0.70910849  0.56456871  0.10799992    -0.56100
C9          C  0.79878287  0.62119199  0.11255473     0.77600
O10         O  0.75063363  0.54585854  0.10727836    -0.58500
O11         O  0.76518582  0.57197832  0.02837244    -0.56900
O12         O  0.71451379  0.61968969  0.13349395    -0.56900
O13         O  0.78672019  0.62845401  0.08177364    -0.56100
O14         O  0.95245441  0.83482421  0.28295953    -0.57300
C15         C  0.92926491  0.86974653  0.18190441     0.75300
O16         O  0.00184014  0.85514614  0.22216162    -0.58500
C17         C  0.96875541  0.81582285  0.29577839     0.75300
C18         C  0.93422784  0.77274978  0.18880502     0.77700
Cd19       Cd  0.96191390  0.82389663  0.21435819     1.37500
O20         O  0.92647664  0.86211380  0.21658595    -0.57300
O21         O  0.92234405  0.79116085  0.21021533    -0.56100
C22         C  0.01838421  0.84276120  0.19867058     0.77600
O23         O  0.95954287  0.77760475  0.17889821    -0.58500
O24         O  0.94654360  0.85548699  0.16140236    -0.56900
O25         O  0.98075600  0.79984560  0.27107928    -0.56900
O26         O  0.00882225  0.82110553  0.18112239    -0.56100
O27         O  0.26227057  0.58792368  0.77868540    -0.57300
C28         C  0.27335955  0.63534001  0.70282111     0.75300
O29         O  0.23083435  0.54025774  0.71803426    -0.58500
C30         C  0.24346304  0.57638776  0.79927717     0.75300
C31         C  0.17853093  0.61708560  0.70864555     0.77700
Cd32       Cd  0.23295357  0.59221647  0.72130522     1.37500
O33         O  0.26050857  0.63490326  0.73486152    -0.57300
O34         O  0.19261929  0.62102505  0.73891265    -0.56100
C35         C  0.24816232  0.53750460  0.69036994     0.77600
O36         O  0.18943243  0.60104494  0.68303537    -0.58500
O37         O  0.26661489  0.61645493  0.67835031    -0.56900
O38         O  0.21947384  0.57288891  0.78410282    -0.56900
O39         O  0.25557790  0.56005244  0.67366881    -0.56100
O40         O  0.05084888  0.84203488  0.66271000    -0.57300
C41         C  0.00360033  0.81377031  0.58159176     0.75300
O42         O  0.01806482  0.77833961  0.71409067    -0.58500
C43         C  0.04607290  0.85617490  0.69328635     0.75300
C44         C  0.94985333  0.83011144  0.67979304     0.77700
Cd45       Cd  0.00740108  0.81429188  0.66440533     1.37500
O46         O  0.02011607  0.83053487  0.59903735    -0.57300
O47         O  0.96876994  0.84806242  0.67207292    -0.56100
C48         C  0.03014499  0.76154089  0.69045575     0.77600
O49         O  0.95776066  0.80457329  0.68322452    -0.58500
O50         O  0.98919619  0.79733430  0.60243539    -0.56900
O51         O  0.02386871  0.85002654  0.71187889    -0.56900
O52         O  0.03071617  0.76885574  0.65558067    -0.56100
O53         O  0.33958882  0.46941463  0.13046413    -0.57300
C54         C  0.28822276  0.51521210  0.06872240     0.75300
O55         O  0.26091981  0.48875298  0.19249723    -0.58500
C56         C  0.34564089  0.46274937  0.16468363     0.75300
C57         C  0.32159416  0.55429623  0.17211782     0.77700
Cd58       Cd  0.30012320  0.50046712  0.14684556     1.37500
O59         O  0.30291449  0.49353269  0.07645752    -0.57300
O60         O  0.33670473  0.53530577  0.15623008    -0.56100
C61         C  0.25060816  0.47005164  0.17016055     0.77600
O62         O  0.29594992  0.54808121  0.17858842    -0.58500
O63         O  0.27902427  0.52981963  0.09695832    -0.56900
O64         O  0.33004724  0.47304553  0.19121571    -0.56900
O65         O  0.26309799  0.46611445  0.13828403    -0.56100
O66         O  0.06860550  0.24349152  0.27195733    -0.57300
C67         C  0.13191428  0.21865490  0.21552602     0.75300
O68         O  0.05169536  0.26137069  0.15394751    -0.58500
C69         C  0.04906921  0.26185706  0.27424173     0.75300
C70         C  0.11405262  0.31112958  0.19732278     0.77700
Cd71       Cd  0.08556777  0.25822477  0.20870633     1.37500
O72         O  0.12521966  0.23590930  0.24220140    -0.57300
O73         O  0.10395876  0.30414799  0.22965274    -0.56100
C74         C  0.04076351  0.23738669  0.16066379     0.77600
O75         O  0.10972320  0.29422783  0.16929214    -0.58500
O76         O  0.11771734  0.22046441  0.18480907    -0.56900
O77         O  0.04733756  0.27940011  0.24701445    -0.56900
O78         O  0.05250368  0.22272602  0.18634434    -0.56100
O79         O  0.63377254  0.43591547  0.70343846    -0.57300
C80         C  0.68866719  0.49522924  0.75175439     0.75300
O81         O  0.70482451  0.45902428  0.63257650    -0.58500
C82         C  0.62141742  0.43258759  0.67141044     0.75300
C83         C  0.64412134  0.52200624  0.65146870     0.77700
Cd84       Cd  0.66785287  0.47120769  0.68066305     1.37500
O85         O  0.66937879  0.47664478  0.75160617    -0.57300
O86         O  0.63177835  0.50721908  0.67662771    -0.56100
C87         C  0.71427795  0.43853538  0.65210611     0.77600
O88         O  0.66740911  0.51275700  0.63799141    -0.58500
O89         O  0.69835582  0.50227171  0.71922888    -0.56900
O90         O  0.63109326  0.44668011  0.64344424    -0.56900
O91         O  0.70210542  0.43340791  0.68375232    -0.56100
O92         O  0.86321183  0.21689114  0.55932223    -0.57300
C93         C  0.92740508  0.25706233  0.51083664     0.75300
O94         O  0.89077129  0.29377285  0.61825549    -0.58500
C95         C  0.85649564  0.20711035  0.59191290     0.75300
C96         C  0.94654783  0.22640213  0.62506185     0.77700
Cd97       Cd  0.89971116  0.24867103  0.58300681     1.37500
O98         O  0.90958487  0.23744534  0.51521743    -0.57300
O99         O  0.93571269  0.21361827  0.59657818    -0.56100
C100        C  0.86875505  0.29962532  0.59932846     0.77600
O101        O  0.93514328  0.24964489  0.63550409    -0.58500
O102        O  0.93141113  0.27355672  0.53924776    -0.56900
O103        O  0.86976755  0.21672982  0.62079687    -0.56900
O104        O  0.86171351  0.28210091  0.57338178    -0.56100
O105        O  0.46477159  0.77452667  0.06706850    -0.57300
C106        C  0.43912902  0.72820566  0.15058128     0.75300
O107        O  0.52537624  0.77866659  0.16300512    -0.58500
C108        C  0.48613734  0.78826385  0.05587240     0.75300
C109        C  0.45015336  0.82335148  0.17120829     0.77700
Cd110      Cd  0.47698867  0.77473026  0.13533074     1.37500
O111        O  0.44304429  0.73766216  0.11701844    -0.57300
O112        O  0.44562719  0.81594635  0.13673432    -0.56100
C113        C  0.53234150  0.75345298  0.15402444     0.77600
O114        O  0.46795292  0.80866941  0.18947161    -0.58500
O115        O  0.45254163  0.74043306  0.17745660    -0.56900
O116        O  0.50298824  0.79682339  0.08164293    -0.56900
O117        O  0.51369331  0.73853144  0.13767696    -0.56100
O118        O  0.21201052  0.98274300  0.33097663    -0.57300
C119        C  0.19931229  0.94068192  0.24940547     0.75300
O120        O  0.22794188  0.01412125  0.22548186    -0.58500
C121        C  0.23052612  0.99345736  0.35284805     0.75300
C122        C  0.29627455  0.95416667  0.25401360     0.77700
Cd123      Cd  0.24271067  0.97959199  0.27403512     1.37500
O124        O  0.20297499  0.96448606  0.23375729    -0.57300
O125        O  0.28614763  0.95254797  0.28767303    -0.56100
C126        C  0.23352932  0.03580310  0.24580036     0.77600
O127        O  0.28226280  0.96835095  0.22999283    -0.58500
O128        O  0.21608375  0.93442144  0.27635148    -0.56900
O129        O  0.25513688  0.99617324  0.33895577    -0.56900
O130        O  0.24612415  0.03152299  0.27719739    -0.56100
O131        O  0.36821229  0.35818002  0.74454436    -0.57300
C132        C  0.42377150  0.31785236  0.80811464     0.75300
O133        O  0.38261478  0.26705636  0.70941277    -0.58500
C134        C  0.35409678  0.35662556  0.71378055     0.75300
C135        C  0.44357075  0.32700972  0.68763567     0.77700
Cd136      Cd  0.39543179  0.31456364  0.73498815     1.37500
O137        O  0.40036114  0.33029615  0.80309029    -0.57300
O138        O  0.42862070  0.34606654  0.70369212    -0.56100
C139        C  0.36597257  0.26128565  0.73695480     0.77600
O140        O  0.43484947  0.30172823  0.69042005    -0.58500
O141        O  0.43334816  0.30343742  0.77999956    -0.56900
O142        O  0.35880125  0.33511360  0.69240344    -0.56900
O143        O  0.36309941  0.28012437  0.76291113    -0.56100
O144        O  0.17458889  0.08952088  0.62645873    -0.57300
C145        C  0.12459131  0.12325780  0.69074623     0.75300
O146        O  0.17613983  0.04189911  0.73796387    -0.58500
C147        C  0.18409277  0.06481170  0.61997796     0.75300
C148        C  0.21921029  0.11339010  0.72959245     0.77700
Cd149      Cd  0.17145881  0.08454482  0.69666546     1.37500
O150        O  0.14481969  0.12286951  0.66680151    -0.57300
O151        O  0.22037276  0.10057067  0.69749906    -0.56100
C152        C  0.15188226  0.03257588  0.72938586     0.77600
O153        O  0.19615524  0.11167901  0.74810588    -0.58500
O154        O  0.12688985  0.10703997  0.71945166    -0.56900
O155        O  0.18803631  0.04928949  0.64896388    -0.56900
O156        O  0.13686845  0.04801315  0.70806932    -0.56100
O157        O  0.55717479  0.34120388  0.05787366    -0.57300
C158        C  0.61208998  0.36641027  0.13757448     0.75300
O159        O  0.52485301  0.31826442  0.16222670    -0.58500
C160        C  0.53993037  0.32139927  0.05056313     0.75300
C161        C  0.60152245  0.27437564  0.13576439     0.77700
Cd162      Cd  0.56873597  0.32501726  0.12340107     1.37500
O163        O  0.60482673  0.35931458  0.10372267    -0.57300
O164        O  0.60099501  0.28690491  0.10372554    -0.56100
C165        C  0.51848183  0.34443044  0.16267130     0.77600
O166        O  0.58565529  0.28441296  0.16222485    -0.58500
O167        O  0.59959838  0.35405456  0.16505649    -0.56900
O168        O  0.53762836  0.30227838  0.07569081    -0.56900
O169        O  0.53655633  0.36124118  0.14891271    -0.56100
O170        O  0.81397774  0.10237444  0.24054364    -0.57300
C171        C  0.85675391  0.14043405  0.15590760     0.75300
O172        O  0.80348579  0.05775111  0.12826549    -0.58500
C173        C  0.80105416  0.07909711  0.24485066     0.75300
C174        C  0.75929018  0.13267516  0.15671598     0.77700
Cd175      Cd  0.81074279  0.10124325  0.16941623     1.37500
O176        O  0.85518512  0.12492135  0.18538235    -0.57300
O177        O  0.77042432  0.13053042  0.18957195    -0.56100
C178        C  0.82832662  0.04847186  0.13363527     0.77600
O179        O  0.77166489  0.11983702  0.12898223    -0.58500
O180        O  0.83648130  0.13815988  0.13249808    -0.56900
O181        O  0.79250354  0.06669267  0.21464754    -0.56900
O182        O  0.84484866  0.06472018  0.15175418    -0.56100
O183        O  0.54177636  0.71518583  0.69965212    -0.57300
C184        C  0.50500277  0.76988996  0.76982687     0.75300
O185        O  0.51750548  0.79478747  0.64450155    -0.58500
C186        C  0.53975432  0.70425266  0.66631784     0.75300
C187        C  0.45236454  0.73900697  0.67121636     0.77700
Cd188      Cd  0.50959773  0.75474632  0.68922016     1.37500
O189        O  0.51596256  0.74683870  0.75818108    -0.57300
O190        O  0.46869682  0.72376374  0.69090789    -0.56100
C191        C  0.54278399  0.79888874  0.65489084     0.77600
O192        O  0.46228031  0.76228365  0.65925164    -0.58500
O193        O  0.49623581  0.78655571  0.74413227    -0.56900
O194        O  0.52460027  0.71745835  0.64244059    -0.56900
O195        O  0.55237254  0.78249859  0.68026750    -0.56100
O196        O  0.77524388  0.93915704  0.57460535    -0.57300
C197        C  0.75044135  0.99162780  0.49878125     0.75300
O198        O  0.69480724  0.96493847  0.61199858    -0.58500
C199        C  0.78011317  0.93910720  0.61042487     0.75300
C200        C  0.74647977  0.03242835  0.60598718     0.77700
Cd201      Cd  0.73866411  0.97581134  0.57690880     1.37500
O202        O  0.76720024  0.97650419  0.51802080    -0.57300
O203        O  0.76640149  0.01461340  0.60317391    -0.56100
C204        C  0.68717722  0.94496866  0.58980588     0.77600
O205        O  0.72198504  0.02333058  0.59841823    -0.58500
O206        O  0.72682037  0.99740637  0.51431784    -0.56900
O207        O  0.76510810  0.95548527  0.63136409    -0.56900
O208        O  0.70281371  0.93998128  0.56076822    -0.56100
C209        C  0.56041148  0.82181651  0.63902659     0.01800
C210        C  0.58793909  0.81560763  0.62534766     0.04700
C211        C  0.60588477  0.83769027  0.61390967    -0.11400
C212        C  0.59691640  0.86610729  0.61767274     0.24000
C213        C  0.56931180  0.87239606  0.63055946    -0.12000
C214        C  0.55085964  0.85025213  0.64056939     0.05400
C215        C  0.61760913  0.88913333  0.61148484     0.27800
C216        C  0.63566206  0.89706635  0.64179729    -0.12700
C217        C  0.65781119  0.91620436  0.63514467     0.05900
C218        C  0.66191277  0.92762084  0.59800068    -0.08600
C219        C  0.64272755  0.92089098  0.56825984     0.06700
C220        C  0.62070558  0.90153022  0.57497893    -0.13000
Br221      Br  0.55753073  0.91144615  0.63651315    -0.05100
Br222      Br  0.60141851  0.77689296  0.62254063     0.00600
Br223      Br  0.68351097  0.92487149  0.67661389     0.01000
Br224      Br  0.59516051  0.89126729  0.53408848    -0.03400
Br225      Br  0.51337129  0.85923042  0.65935223     0.01100
Br226      Br  0.64325200  0.82924022  0.59412457    -0.02700
Br227      Br  0.63057174  0.88062925  0.69216492    -0.03500
Br228      Br  0.64594127  0.93884091  0.51866002     0.00400
C229        C  0.79605123  0.06666497  0.28303069     0.01800
C230        C  0.78046482  0.08179550  0.31133970     0.04700
C231        C  0.77368781  0.06878275  0.34649442    -0.11400
C232        C  0.78266203  0.04076340  0.35347462     0.24000
C233        C  0.79900140  0.02598402  0.32574885    -0.12000
C234        C  0.80555622  0.03883466  0.29044733     0.05400
C235        C  0.77492697  0.02692811  0.39013056     0.27800
C236        C  0.79265258  0.02977866  0.42229479    -0.12700
C237        C  0.78453655  0.01820362  0.45781591     0.05900
C238        C  0.75885243  0.00316950  0.46106050    -0.08600
C239        C  0.74132084  0.99995155  0.42858840     0.06700
C240        C  0.74950801  0.01162892  0.39306433    -0.13000
Br241      Br  0.81239801  0.98816655  0.33644535    -0.05100
Br242      Br  0.76702779  0.11971502  0.30125485     0.00600
Br243      Br  0.80776466  0.02501643  0.50257367     0.01000
Br244      Br  0.72627538  0.00638557  0.34805443    -0.03400
Br245      Br  0.82827990  0.01853873  0.25271767     0.01100
Br246      Br  0.75176237  0.08906472  0.38507043    -0.02700
Br247      Br  0.82812052  0.04956241  0.41737310    -0.03500
Br248      Br  0.70644337  0.97908832  0.43238535     0.00400
C249        C  0.62069753  0.24997461  0.14183537     0.01800
C250        C  0.62136727  0.22723491  0.11497861     0.04700
C251        C  0.64241313  0.20614650  0.11736756    -0.11400
C252        C  0.66259312  0.20740033  0.14697841     0.24000
C253        C  0.66110572  0.22927039  0.17497719    -0.12000
C254        C  0.64045258  0.25072769  0.17217564     0.05400
C255        C  0.68648596  0.18686682  0.14735807     0.27800
C256        C  0.68542916  0.16286418  0.17115323    -0.12700
C257        C  0.70901915  0.14465761  0.17353607     0.05900
C258        C  0.73355016  0.15005850  0.15141896    -0.08600
C259        C  0.73422597  0.17365334  0.12674354     0.06700
C260        C  0.71081466  0.19209634  0.12492388    -0.13000
Br261      Br  0.68821818  0.23034055  0.21630603    -0.05100
Br262      Br  0.59326568  0.22472938  0.07505441     0.00600
Br263      Br  0.70758031  0.11222349  0.20700517     0.01000
Br264      Br  0.71235365  0.22528606  0.09283220    -0.03400
Br265      Br  0.64118540  0.28250319  0.20780189     0.01100
Br266      Br  0.64429871  0.17594189  0.07941699    -0.02700
Br267      Br  0.65171091  0.15537056  0.20085194    -0.03500
Br268      Br  0.76801128  0.18207915  0.09766327     0.00400
C269        C  0.52249468  0.32117402  0.01525155     0.01800
C270        C  0.50662127  0.34553635  0.00553255     0.04700
C271        C  0.48952832  0.34530609  0.97247613    -0.11400
C272        C  0.48819475  0.32082988  0.94895586     0.24000
C273        C  0.50351158  0.29633612  0.95891945    -0.12000
C274        C  0.52048519  0.29640190  0.99211287     0.05400
C275        C  0.47119671  0.32104333  0.91317506     0.27800
C276        C  0.44244645  0.31342792  0.91415864    -0.12700
C277        C  0.42653592  0.31323786  0.87998336     0.05900
C278        C  0.43954789  0.32013265  0.84459943    -0.08600
C279        C  0.46821218  0.32831597  0.84385290     0.06700
C280        C  0.48395769  0.32878728  0.87807531    -0.13000
Br281      Br  0.50117261  0.26276058  0.92671063    -0.05100
Br282      Br  0.50664138  0.37876109  0.03867855     0.00600
Br283      Br  0.38728146  0.30237441  0.88158989     0.01000
Br284      Br  0.52315944  0.33990186  0.87703822    -0.03400
Br285      Br  0.54152997  0.26269566  0.00492046     0.01100
Br286      Br  0.46754341  0.37837981  0.95936752    -0.02700
Br287      Br  0.42518924  0.30262394  0.96231479    -0.03500
Br288      Br  0.48571817  0.34024974  0.79628371     0.00400
C289        C  0.24315895  0.13082023  0.74294616     0.01800
C290        C  0.27100421  0.11999537  0.74042829     0.04700
C291        C  0.29416881  0.13840877  0.74438320    -0.11400
C292        C  0.28950368  0.16759379  0.75070297     0.24000
C293        C  0.26188495  0.17791245  0.75699666    -0.12000
C294        C  0.23868010  0.15965790  0.75279114     0.05400
C295        C  0.31282596  0.18815285  0.74598636     0.27800
C296        C  0.32866798  0.19714696  0.77795099    -0.12700
C297        C  0.34737886  0.22011178  0.77441423     0.05900
C298        C  0.35009380  0.23432095  0.73883753    -0.08600
C299        C  0.33566795  0.22385384  0.70611981     0.06700
C300        C  0.31709630  0.20079749  0.70978498    -0.13000
Br301      Br  0.25596387  0.21760492  0.76909810    -0.05100
Br302      Br  0.27747051  0.08005156  0.73087682     0.00600
Br303      Br  0.36954483  0.23165869  0.81838706     0.01000
Br304      Br  0.29612888  0.18734191  0.66563289    -0.03400
Br305      Br  0.20092472  0.17525759  0.75598822     0.01100
Br306      Br  0.33227183  0.12407985  0.73977308    -0.02700
Br307      Br  0.32380374  0.17854116  0.82679425    -0.03500
Br308      Br  0.33916948  0.24223440  0.65680007     0.00400
C309        C  0.22342676  0.00345534  0.39208423     0.01800
C310        C  0.20190863  0.02396910  0.39740723     0.04700
C311        C  0.19537638  0.03415982  0.43464690    -0.11400
C312        C  0.21025597  0.02382157  0.46662207     0.24000
C313        C  0.23194023  0.00356059  0.46131654    -0.12000
C314        C  0.23865729  0.99349672  0.42403542     0.05400
C315        C  0.20328102  0.03450013  0.50583600     0.27800
C316        C  0.21532025  0.05997226  0.51940477    -0.12700
C317        C  0.20867256  0.07017967  0.55660743     0.05900
C318        C  0.19035165  0.05461610  0.58057109    -0.08600
C319        C  0.17820174  0.02916108  0.56688960     0.06700
C320        C  0.18457528  0.01920602  0.52946408    -0.13000
Br321      Br  0.25247315  0.98981884  0.50526955    -0.05100
Br322      Br  0.18257264  0.03956460  0.35347099     0.00600
Br323      Br  0.22567788  0.10487991  0.57518765     0.01000
Br324      Br  0.16763008  0.98469115  0.51026783    -0.03400
Br325      Br  0.26825907  0.96561815  0.41690833     0.01100
Br326      Br  0.16642990  0.06272267  0.44197567    -0.02700
Br327      Br  0.24126921  0.08056811  0.48705946    -0.03500
Br328      Br  0.15178194  0.00857209  0.59864250     0.00400
C329        C  0.50215876  0.77639862  0.81142137     0.01800
C330        C  0.48922967  0.75641027  0.83580163     0.04700
C331        C  0.48769667  0.76152813  0.87572647    -0.11400
C332        C  0.49887880  0.78670874  0.89150819     0.24000
C333        C  0.51128729  0.80700131  0.86726213    -0.12000
C334        C  0.51301707  0.80185532  0.82720720     0.05400
C335        C  0.49762218  0.79141841  0.93377900     0.27800
C336        C  0.47332589  0.80366929  0.95079022    -0.12700
C337        C  0.47040139  0.80452166  0.99115801     0.05900
C338        C  0.49155746  0.79264048  0.01451051    -0.08600
C339        C  0.51658504  0.78182428  0.99752333     0.06700
C340        C  0.51962254  0.78130892  0.95716401    -0.13000
Br341      Br  0.52615307  0.84156938  0.88934384    -0.05100
Br342      Br  0.47252990  0.72238553  0.81447835     0.00600
Br343      Br  0.43755027  0.82218500  0.01450652     0.01000
Br344      Br  0.55315231  0.76515379  0.93368053    -0.03400
Br345      Br  0.53171405  0.82895916  0.79456333     0.01100
Br346      Br  0.47031516  0.73397601  0.90908981    -0.02700
Br347      Br  0.44347289  0.81781817  0.91853748    -0.03500
Br348      Br  0.54565415  0.76530170  0.02917260     0.00400
C349        C  0.32232840  0.93900548  0.24277142     0.01800
C350        C  0.34805436  0.94466102  0.26162507     0.04700
C351        C  0.37240041  0.92878523  0.25192312    -0.11400
C352        C  0.37096024  0.90733055  0.22342412     0.24000
C353        C  0.34542353  0.90221061  0.20395753    -0.12000
C354        C  0.32108544  0.91779525  0.21389013     0.05400
C355        C  0.39558645  0.88881120  0.21490244     0.27800
C356        C  0.41258662  0.89400522  0.18234728    -0.12700
C357        C  0.43169028  0.87311414  0.16904722     0.05900
C358        C  0.43440562  0.84728340  0.18903996    -0.08600
C359        C  0.41914597  0.84327765  0.22367459     0.06700
C360        C  0.39948996  0.86388006  0.23626668    -0.13000
Br361      Br  0.34370548  0.87327690  0.16415742    -0.05100
Br362      Br  0.35004670  0.97441478  0.30014879     0.00600
Br363      Br  0.45362255  0.87977049  0.12291207     0.01000
Br364      Br  0.37614762  0.85705729  0.28107825    -0.03400
Br365      Br  0.28551017  0.90843551  0.18999924     0.01100
Br366      Br  0.40768892  0.93610771  0.27758921    -0.02700
Br367      Br  0.40834683  0.92917049  0.15494800    -0.03500
Br368      Br  0.42279073  0.80849760  0.25208038     0.00400
C369        C  0.97167728  0.21453409  0.64399672     0.01800
C370        C  0.97135071  0.18606991  0.65608332     0.04700
C371        C  0.99657327  0.17268097  0.66701661    -0.11400
C372        C  0.02227820  0.18755903  0.66531564     0.24000
C373        C  0.02246224  0.21644453  0.65520079    -0.12000
C374        C  0.99707802  0.23010388  0.64518891     0.05400
C375        C  0.04918192  0.17218862  0.67176191     0.27800
C376        C  0.06187686  0.17254777  0.70834784    -0.12700
C377        C  0.08695262  0.15711787  0.71455481     0.05900
C378        C  0.09907529  0.14076946  0.68428418    -0.08600
C379        C  0.08610296  0.14033191  0.64763445     0.06700
C380        C  0.06141461  0.15624387  0.64136887    -0.13000
Br381      Br  0.05778333  0.23667533  0.65277292    -0.05100
Br382      Br  0.93622758  0.16539893  0.65771853     0.00600
Br383      Br  0.10507932  0.15938009  0.76414265     0.01000
Br384      Br  0.04373728  0.15565999  0.59128143    -0.03400
Br385      Br  0.99759616  0.26954752  0.63074810     0.01100
Br386      Br  0.99625177  0.13353140  0.68275842    -0.02700
Br387      Br  0.04434014  0.19373136  0.75001995    -0.03500
Br388      Br  0.10065199  0.11634152  0.60639588     0.00400
C389        C  0.83461202  0.18515894  0.59580784     0.01800
C390        C  0.83576485  0.16063296  0.57208742     0.04700
C391        C  0.81617574  0.13875782  0.57756344    -0.11400
C392        C  0.79497375  0.14155341  0.60605079     0.24000
C393        C  0.79277042  0.16661324  0.62828626    -0.12000
C394        C  0.81278857  0.18831788  0.62353208     0.05400
C395        C  0.77687509  0.11684073  0.61429171     0.27800
C396        C  0.75301888  0.11134118  0.59148134    -0.12700
C397        C  0.74068595  0.08420823  0.59165067     0.05900
C398        C  0.75240127  0.06260294  0.61477081    -0.08600
C399        C  0.77402599  0.06946290  0.64112719     0.06700
C400        C  0.78640705  0.09647300  0.64057657    -0.13000
Br401      Br  0.76245905  0.17085254  0.66532724    -0.05100
Br402      Br  0.86514730  0.15585148  0.53355983     0.00600
Br403      Br  0.70997154  0.07638117  0.55675639     0.01000
Br404      Br  0.81837536  0.10482544  0.67303711    -0.03400
Br405      Br  0.80976187  0.22260424  0.65431484     0.01100
Br406      Br  0.81906373  0.10421397  0.54715078    -0.02700
Br407      Br  0.73919516  0.14029358  0.55737423    -0.03500
Br408      Br  0.78745847  0.04164009  0.67719507     0.00400
C409        C  0.63227771  0.54955305  0.64073078     0.01800
C410        C  0.64416985  0.57437281  0.65654321     0.04700
C411        C  0.62912438  0.60008150  0.65524485    -0.11400
C412        C  0.60245108  0.60102120  0.63748393     0.24000
C413        C  0.59161875  0.57666753  0.61900489    -0.12000
C414        C  0.60642361  0.55081192  0.62099226     0.05400
C415        C  0.58450687  0.62657437  0.64248322     0.27800
C416        C  0.56700150  0.62899054  0.67530962    -0.12700
C417        C  0.55191821  0.65421815  0.68257330     0.05900
C418        C  0.55395130  0.67706623  0.65662932    -0.08600
C419        C  0.57007914  0.67383462  0.62238159     0.06700
C420        C  0.58563369  0.64870041  0.61564117    -0.13000
Br421      Br  0.55567060  0.57848541  0.59332015    -0.05100
Br422      Br  0.67976235  0.57248375  0.68334338     0.00600
Br423      Br  0.52757753  0.65672335  0.72748630     0.01000
Br424      Br  0.60902228  0.64450229  0.57016144    -0.03400
Br425      Br  0.59086341  0.51680714  0.59824947     0.01100
Br426      Br  0.64388262  0.63347366  0.68060037    -0.02700
Br427      Br  0.56387055  0.59755003  0.71040840    -0.03500
Br428      Br  0.57200625  0.70396729  0.58528749     0.00400
C429        C  0.73842615  0.42118216  0.63939450     0.01800
C430        C  0.73493937  0.39168654  0.63470826     0.04700
C431        C  0.75857580  0.37424372  0.62804165    -0.11400
C432        C  0.78573978  0.38627584  0.62628446     0.24000
C433        C  0.78919585  0.41584035  0.62998707    -0.12000
C434        C  0.76546866  0.43336750  0.63628033     0.05400
C435        C  0.81045707  0.36753904  0.62009734     0.27800
C436        C  0.82283737  0.35373530  0.65161653    -0.12700
C437        C  0.84307274  0.33224997  0.64517919     0.05900
C438        C  0.85140984  0.32512398  0.60709208    -0.08600
C439        C  0.84058251  0.34068600  0.57582833     0.06700
C440        C  0.81982297  0.36156079  0.58233425    -0.13000
Br441      Br  0.82651970  0.43200065  0.62766546    -0.05100
Br442      Br  0.69764305  0.37525978  0.63691400     0.00600
Br443      Br  0.85701713  0.31099828  0.68845553     0.01000
Br444      Br  0.80302073  0.38106198  0.53946101    -0.03400
Br445      Br  0.77018151  0.47378553  0.64281066     0.01100
Br446      Br  0.75387350  0.33375350  0.62191567    -0.02700
Br447      Br  0.81089825  0.36343406  0.70344716    -0.03500
Br448      Br  0.85418823  0.33369112  0.52391341     0.00400
C449        C  0.59655901  0.41373925  0.66714516     0.01800
C450        C  0.57542246  0.41365085  0.69618122     0.04700
C451        C  0.55176023  0.39598057  0.69238004    -0.11400
C452        C  0.54893219  0.37822870  0.65973779     0.24000
C453        C  0.56964934  0.37835953  0.63051205    -0.12000
C454        C  0.59333398  0.39624128  0.63395043     0.05400
C455        C  0.52341715  0.36028479  0.65640020     0.27800
C456        C  0.52219075  0.33428645  0.67596387    -0.12700
C457        C  0.49594167  0.32120052  0.68248303     0.05900
C458        C  0.47088268  0.33438503  0.66962429    -0.08600
C459        C  0.47263669  0.35861366  0.64618802     0.06700
C460        C  0.49889491  0.37155340  0.63959964    -0.13000
Br461      Br  0.56526889  0.35400756  0.58586240    -0.05100
Br462      Br  0.57730056  0.43917937  0.74010251     0.00600
Br463      Br  0.49444099  0.28730153  0.71325766     0.01000
Br464      Br  0.50105229  0.40627016  0.61076429    -0.03400
Br465      Br  0.62130841  0.39600771  0.59317164     0.01100
Br466      Br  0.52253720  0.39651583  0.73160661    -0.02700
Br467      Br  0.55623897  0.31836734  0.69727083    -0.03500
Br468      Br  0.43886946  0.37490637  0.62463913     0.00400
C469        C  0.88137421  0.15956431  0.14933149     0.01800
C470        C  0.89137582  0.16529393  0.11145843     0.04700
C471        C  0.91642297  0.18094896  0.10605508    -0.11400
C472        C  0.93203966  0.19028461  0.13806243     0.24000
C473        C  0.92185021  0.18543474  0.17561729    -0.12000
C474        C  0.89629677  0.17089326  0.18129284     0.05400
C475        C  0.96018072  0.20360302  0.13294760     0.27800
C476        C  0.98431300  0.18620893  0.12945878    -0.12700
C477        C  0.01134178  0.19799590  0.13397453     0.05900
C478        C  0.01434705  0.22721982  0.14246486    -0.08600
C479        C  0.99026699  0.24512387  0.14135882     0.06700
C480        C  0.96321700  0.23322247  0.13659699    -0.13000
Br481      Br  0.94383498  0.19768108  0.21954913    -0.05100
Br482      Br  0.87246943  0.15053327  0.06635152     0.00600
Br483      Br  0.04422299  0.17375956  0.12975514     0.01000
Br484      Br  0.92996157  0.25705563  0.13806166    -0.03400
Br485      Br  0.88174653  0.16785614  0.23334455     0.01100
Br486      Br  0.93031207  0.18882531  0.05481077    -0.02700
Br487      Br  0.98008575  0.14584450  0.12144033    -0.03500
Br488      Br  0.99344571  0.28547628  0.15052480     0.00400
C489        C  0.02905287  0.26248067  0.30684143     0.01800
C490        C  0.02390966  0.28805420  0.32729271     0.04700
C491        C  0.00541333  0.28831320  0.35910732    -0.11400
C492        C  0.99231016  0.26302675  0.37070430     0.24000
C493        C  0.99684428  0.23763192  0.34982671    -0.12000
C494        C  0.01497874  0.23738446  0.31764600     0.05400
C495        C  0.97540246  0.26263141  0.40653080     0.27800
C496        C  0.98924321  0.25971208  0.44205124    -0.12700
C497        C  0.97341539  0.25826485  0.47625300     0.05900
C498        C  0.94368806  0.25977457  0.47495614    -0.08600
C499        C  0.92981071  0.26269009  0.43936486     0.06700
C500        C  0.94572615  0.26426597  0.40511076    -0.13000
Br501      Br  0.97866820  0.20308827  0.36612329    -0.05100
Br502      Br  0.04344719  0.32239933  0.31350678     0.00600
Br503      Br  0.99253908  0.25212992  0.52448420     0.01000
Br504      Br  0.92710193  0.26843025  0.35615826    -0.03400
Br505      Br  0.01944868  0.20283671  0.28764769     0.01100
Br506      Br  0.99859089  0.32303343  0.38779500    -0.02700
Br507      Br  0.02995111  0.25697011  0.44357364    -0.03500
Br508      Br  0.88913475  0.26509572  0.43755642     0.00400
C509        C  0.22372563  0.06442265  0.23527209     0.01800
C510        C  0.24191105  0.08800807  0.23845849     0.04700
C511        C  0.23106786  0.11570378  0.23452823    -0.11400
C512        C  0.20213550  0.11977728  0.22711361     0.24000
C513        C  0.18428103  0.09622247  0.22208631    -0.12000
C514        C  0.19492845  0.06862320  0.22642887     0.05400
C515        C  0.18956440  0.14858591  0.22632022     0.27800
C516        C  0.17523524  0.15907278  0.25918516    -0.12700
C517        C  0.15735416  0.18286915  0.25635776     0.05900
C518        C  0.15419639  0.19667693  0.22045010    -0.08600
C519        C  0.17092976  0.18763521  0.18856871     0.06700
C520        C  0.18821606  0.16338814  0.19143094    -0.13000
Br521      Br  0.14474063  0.10201018  0.21083921    -0.05100
Br522      Br  0.28169810  0.08238241  0.24761322     0.00600
Br523      Br  0.13550427  0.19413811  0.30133896     0.01000
Br524      Br  0.20883648  0.14916478  0.14703471    -0.03400
Br525      Br  0.16906651  0.03699682  0.22380503     0.01100
Br526      Br  0.25549867  0.14810006  0.24025142    -0.02700
Br527      Br  0.17861665  0.13922837  0.30746957    -0.03500
Br528      Br  0.17076198  0.20832897  0.14082356     0.00400
C529        C  0.33374724  0.58248628  0.18060057     0.01800
C530        C  0.36050685  0.58415550  0.19817460     0.04700
C531        C  0.37584965  0.60960065  0.19719265    -0.11400
C532        C  0.36459830  0.63344613  0.17847026     0.24000
C533        C  0.33691266  0.63257539  0.16380682    -0.12000
C534        C  0.32137236  0.60716467  0.16510462     0.05400
C535        C  0.38300098  0.65821876  0.17092419     0.27800
C536        C  0.38105822  0.68285299  0.19411890    -0.12700
C537        C  0.39942786  0.70574874  0.18755331     0.05900
C538        C  0.41993399  0.70406972  0.15781181    -0.08600
C539        C  0.42180516  0.67928716  0.13459137     0.06700
C540        C  0.40319511  0.65658656  0.14091432    -0.13000
Br541      Br  0.32114578  0.66565914  0.13947904    -0.05100
Br542      Br  0.37651186  0.55132011  0.22291520     0.00600
Br543      Br  0.39549005  0.73976667  0.21849837     0.01000
Br544      Br  0.40534683  0.62297716  0.10851989    -0.03400
Br545      Br  0.28431654  0.60579419  0.14226998     0.01100
Br546      Br  0.41315098  0.61138094  0.21925728    -0.02700
Br547      Br  0.35306307  0.68518058  0.23474075    -0.03500
Br548      Br  0.45098226  0.67537557  0.09564555     0.00400
C549        C  0.13112361  0.33710860  0.19331409     0.01800
C550        C  0.12112887  0.36331595  0.20832631     0.04700
C551        C  0.13855236  0.38744259  0.20750080    -0.11400
C552        C  0.16592354  0.38546687  0.19167278     0.24000
C553        C  0.17584791  0.35944683  0.17632548    -0.12000
C554        C  0.15854244  0.33528900  0.17718661     0.05400
C555        C  0.18427920  0.41079879  0.18997994     0.27800
C556        C  0.18357852  0.42810889  0.15724426    -0.12700
C557        C  0.20433754  0.44893501  0.15201571     0.05900
C558        C  0.22558852  0.45289558  0.17996056    -0.05400
C559        C  0.22459531  0.43736546  0.21454731     0.06700
C560        C  0.20404312  0.41613617  0.21934229    -0.13000
Br561      Br  0.21345475  0.35692883  0.15455711    -0.05100
Br562      Br  0.08323167  0.36659754  0.22874165     0.00600
Br563      Br  0.20370687  0.47177766  0.10610834     0.01000
Br564      Br  0.20367006  0.39326270  0.26514812    -0.03400
Br565      Br  0.17332727  0.29938145  0.15843686     0.01100
Br566      Br  0.12517030  0.42333485  0.22792237    -0.02700
Br567      Br  0.15466028  0.42245179  0.11897405    -0.03500
Br568      Br  0.25258235  0.44326433  0.25401250     0.00400
C569        C  0.37008050  0.44423989  0.17277904     0.01800
C570        C  0.36724615  0.42028717  0.19662277     0.04700
C571        C  0.39032826  0.40169665  0.20151880    -0.11400
C572        C  0.41598015  0.40666437  0.18192229     0.24000
C573        C  0.41893899  0.43091319  0.15883874    -0.12000
C574        C  0.39629911  0.44996547  0.15496956     0.05400
C575        C  0.43986018  0.38625418  0.18406788     0.27800
C576        C  0.46315682  0.39242092  0.20775483    -0.12700
C577        C  0.48845633  0.37690269  0.20325806     0.05900
C578        C  0.49049879  0.35515659  0.17513677    -0.08600
C579        C  0.46644263  0.34757313  0.15353850     0.06700
C580        C  0.44113849  0.36306737  0.15810269    -0.13000
Br581      Br  0.45392357  0.43761252  0.13148341    -0.05100
Br582      Br  0.33140273  0.41185671  0.22071708     0.00600
Br583      Br  0.52068202  0.38605407  0.23459919     0.01000
Br584      Br  0.40894413  0.35425652  0.12629125    -0.03400
Br585      Br  0.40180136  0.48465685  0.12665454     0.01100
Br586      Br  0.38679650  0.36912083  0.23432807    -0.02700
Br587      Br  0.46093744  0.42366329  0.24408747    -0.03500
Br588      Br  0.46899298  0.31831949  0.11420562     0.00400
C589        C  0.80270399  0.92120303  0.62651497     0.01800
C590        C  0.79680988  0.90195907  0.65641173     0.04700
C591        C  0.81828140  0.88403842  0.67018977    -0.11400
C592        C  0.84576296  0.88579429  0.65475964     0.24000
C593        C  0.85181332  0.90536443  0.62543188    -0.12000
C594        C  0.83033837  0.92296026  0.61122155     0.05400
C595        C  0.86863333  0.86706458  0.66863843     0.27800
C596        C  0.88642177  0.87647706  0.69848486    -0.12700
C597        C  0.91211241  0.86235193  0.70511218     0.05900
C598        C  0.91997282  0.83887468  0.68186992    -0.08600
C599        C  0.90057611  0.82748001  0.65517471     0.06700
C600        C  0.87493147  0.84170587  0.64846422    -0.13000
Br601      Br  0.88968249  0.90786622  0.60459034    -0.05100
Br602      Br  0.75915890  0.89916523  0.67743451     0.00600
Br603      Br  0.93692356  0.87539386  0.74543035     0.01000
Br604      Br  0.84938757  0.82796035  0.60941276    -0.03400
Br605      Br  0.83928056  0.95032759  0.57189253     0.01100
Br606      Br  0.81012226  0.85651884  0.70941964    -0.02700
Br607      Br  0.87639770  0.90983941  0.72830954    -0.03500
Br608      Br  0.91016900  0.79418786  0.62482139     0.00400
C609        C  0.14150507  0.00449972  0.74122358     0.01800
C610        C  0.15717323  0.97978476  0.73171548     0.04700
C611        C  0.14365771  0.95323217  0.73109200    -0.11400
C612        C  0.11460896  0.95149222  0.73963466     0.24000
C613        C  0.09990062  0.97558148  0.75345609    -0.12000
C614        C  0.11341806  0.00204272  0.75454050     0.05400
C615        C  0.09856097  0.92594788  0.72797259     0.27800
C616        C  0.08945586  0.92337859  0.68951229    -0.12700
C617        C  0.07264296  0.90031993  0.67820085     0.05900
C618        C  0.06482075  0.87960200  0.70537108    -0.08600
C619        C  0.07428933  0.88203483  0.74385168     0.06700
C620        C  0.09129043  0.90514714  0.75502466    -0.13000
Br621      Br  0.06052157  0.97271026  0.76753952    -0.05100
Br622      Br  0.19603327  0.98233733  0.71497801     0.00600
Br623      Br  0.05874971  0.89859216  0.62590674     0.01000
Br624      Br  0.10466065  0.90867426  0.80727567    -0.03400
Br625      Br  0.09309105  0.03523926  0.77269841     0.01100
Br626      Br  0.16398789  0.91949323  0.71504729    -0.02700
Br627      Br  0.09944401  0.95208046  0.65244363    -0.03500
Br628      Br  0.06474820  0.85351899  0.78115589     0.00400
C629        C  0.33365018  0.37922650  0.70354176     0.01800
C630        C  0.33272201  0.39011026  0.66568235     0.04700
C631        C  0.31558427  0.41381530  0.65760476    -0.11400
C632        C  0.30052408  0.42761040  0.68757803     0.24000
C633        C  0.30074894  0.41634172  0.72499564    -0.12000
C634        C  0.31649020  0.39172728  0.73268429     0.05400
C635        C  0.28698962  0.45560449  0.68115887     0.27800
C636        C  0.30374745  0.48022712  0.68225609    -0.12700
C637        C  0.29098334  0.50718710  0.68157770     0.05900
C638        C  0.26120737  0.50967419  0.68117482    -0.08600
C639        C  0.24448783  0.48497666  0.67863144     0.06700
C640        C  0.25740668  0.45798284  0.67818597    -0.13000
Br641      Br  0.28086475  0.43581576  0.76638890    -0.05100
Br642      Br  0.35681423  0.37472235  0.62541566     0.00600
Br643      Br  0.31461624  0.54047546  0.68555476     0.01000
Br644      Br  0.23465534  0.42412531  0.67607933    -0.03400
Br645      Br  0.31378950  0.37497263  0.78315933     0.01100
Br646      Br  0.31361521  0.42841143  0.60589661    -0.02700
Br647      Br  0.34415663  0.47696152  0.68864660    -0.03500
Br648      Br  0.20387075  0.48803828  0.67651323     0.00400
C649        C  0.28215711  0.52336270  0.02878572     0.01800
C650        C  0.26750346  0.50466899  0.00404062     0.04700
C651        C  0.26029950  0.51333590  0.96669074    -0.11400
C652        C  0.26835471  0.54037105  0.95375306     0.24000
C653        C  0.28357823  0.55876960  0.97810881    -0.12000
C654        C  0.29040298  0.55032136  0.01563559     0.05400
C655        C  0.26154535  0.54921049  0.91409753     0.27800
C656        C  0.27949259  0.54113475  0.88335495    -0.12700
C657        C  0.27338793  0.54981219  0.84569060     0.05900
C658        C  0.24946901  0.56697291  0.83877376    -0.08600
C659        C  0.23134674  0.57483709  0.86961381     0.06700
C660        C  0.23740886  0.56591869  0.90724030    -0.13000
Br661      Br  0.29526055  0.59544191  0.95971298    -0.05100
Br662      Br  0.25666923  0.46748096  0.02143322     0.00600
Br663      Br  0.29699553  0.53665304  0.80342791     0.01000
Br664      Br  0.21289704  0.57672669  0.94965998    -0.03400
Br665      Br  0.31248938  0.57508020  0.04820835     0.01100
Br666      Br  0.23911095  0.48844322  0.93319169    -0.02700
Br667      Br  0.31249410  0.51816950  0.89312409    -0.03500
Br668      Br  0.19887242  0.59879606  0.86087458     0.00400
C669        C  0.15100995  0.63118480  0.70420880     0.01800
C670        C  0.14654735  0.65004626  0.67354890     0.04700
C671        C  0.12267869  0.66790081  0.67405464    -0.11400
C672        C  0.10334619  0.66685435  0.70514260     0.24000
C673        C  0.10676071  0.64664253  0.73424593    -0.12000
C674        C  0.13064265  0.62889206  0.73389543     0.05400
C675        C  0.08094014  0.68867579  0.70855406     0.27800
C676        C  0.08583777  0.71346695  0.73058659    -0.12700
C677        C  0.06726591  0.73667757  0.72785607     0.05900
C678        C  0.04426982  0.73524917  0.70230225    -0.08600
C679        C  0.03799615  0.70951386  0.68312428     0.06700
C680        C  0.05608932  0.68602999  0.68687776    -0.13000
Br681      Br  0.07925929  0.64428090  0.77532873    -0.05100
Br682      Br  0.17435997  0.65356803  0.63289304     0.00600
Br683      Br  0.07502131  0.77121437  0.75626204     0.01000
Br684      Br  0.04765246  0.65052100  0.66140369    -0.03400
Br685      Br  0.13575654  0.60175945  0.77459940     0.01100
Br686      Br  0.11726235  0.69503703  0.63335619    -0.02700
Br687      Br  0.11898970  0.71622288  0.76255014    -0.03500
Br688      Br  0.00504719  0.70672955  0.65088752     0.00400
C689        C  0.29603378  0.65599074  0.69507726     0.01800
C690        C  0.31806892  0.65945521  0.72198892     0.04700
C691        C  0.34137142  0.67654490  0.71293232    -0.11400
C692        C  0.34260359  0.69063163  0.67734594     0.24000
C693        C  0.31981412  0.68879760  0.65161105    -0.12000
C694        C  0.29664424  0.67124716  0.66024291     0.05400
C695        C  0.36883511  0.70578588  0.66668599     0.27800
C696        C  0.37286953  0.73411342  0.67865783    -0.12700
C697        C  0.40004139  0.74613719  0.67714697     0.05900
C698        C  0.42314742  0.72970200  0.66373492    -0.08600
C699        C  0.41844406  0.70233455  0.64817126     0.06700
C700        C  0.39127910  0.69044549  0.64951626    -0.13000
Br701      Br  0.32056728  0.71040054  0.60474571    -0.05100
Br702      Br  0.31757628  0.63950452  0.77043208     0.00600
Br703      Br  0.40590539  0.78400609  0.69702554     0.01000
Br704      Br  0.38497212  0.65246397  0.63001664    -0.03400
Br705      Br  0.26542314  0.66886295  0.62486783     0.01100
Br706      Br  0.37223185  0.68004082  0.74886305    -0.02700
Br707      Br  0.34139123  0.75554122  0.69943593    -0.03500
Br708      Br  0.44937849  0.68084270  0.62576598     0.00400
C709        C  0.04745410  0.85336106  0.19335300     0.01800
C710        C  0.05168573  0.88266768  0.18779907     0.04700
C711        C  0.07871664  0.89439369  0.19229367    -0.11400
C712        C  0.10180092  0.87676450  0.20129623     0.24000
C713        C  0.09811876  0.84714994  0.20321643    -0.12000
C714        C  0.07090311  0.83542796  0.19966165     0.05400
C715        C  0.12881235  0.88989238  0.21343199     0.27800
C716        C  0.14828660  0.89970577  0.18583751    -0.12700
C717        C  0.17186289  0.91566168  0.19764033     0.05900
C718        C  0.17615595  0.92163978  0.23721407    -0.08600
C719        C  0.15719541  0.91072389  0.26489259     0.06700
C720        C  0.13368855  0.89478393  0.25299057    -0.13000
Br721      Br  0.13018524  0.82306981  0.21346549    -0.05100
Br722      Br  0.02025114  0.90694796  0.17471002     0.00600
Br723      Br  0.19835037  0.92902739  0.15942483     0.01000
Br724      Br  0.10733920  0.88048290  0.29082093    -0.03400
Br725      Br  0.06557640  0.79534220  0.20764597     0.01100
Br726      Br  0.08376292  0.93495160  0.18903983    -0.02700
Br727      Br  0.14221458  0.89159101  0.13188451    -0.03500
Br728      Br  0.16167304  0.91964246  0.31898828     0.00400
C729        C  0.00088217  0.81340916  0.53912866     0.01800
C730        C  0.99726288  0.83901392  0.51884181     0.04700
C731        C  0.99250142  0.83830735  0.47884370    -0.11400
C732        C  0.99116906  0.81212933  0.45900505     0.24000
C733        C  0.99557332  0.78663084  0.47888272    -0.12000
C734        C  0.00064097  0.78723490  0.51880508     0.05400
C735        C  0.98538645  0.81155835  0.41706999     0.27800
C736        C  0.95734246  0.81036632  0.40380755    -0.12700
C737        C  0.95183920  0.81084217  0.36398405     0.05900
C738        C  0.97437693  0.81311468  0.33738757    -0.08600
C739        C  0.00248272  0.81393679  0.35077033     0.06700
C740        C  0.00793577  0.81303718  0.39053691    -0.13000
Br741      Br  0.99465336  0.75090880  0.45116205    -0.05100
Br742      Br  0.99728993  0.87515344  0.54565097     0.00600
Br743      Br  0.91356246  0.80700165  0.34588972     0.01000
Br744      Br  0.04626869  0.81462509  0.40902120    -0.03400
Br745      Br  0.00875124  0.75218759  0.54503685     0.01100
Br746      Br  0.98746111  0.87316628  0.45090598    -0.02700
Br747      Br  0.92653938  0.80863736  0.44043710    -0.03500
Br748      Br  0.03361408  0.81799641  0.31497218     0.00400
C749        C  0.91360506  0.89455407  0.16677176     0.01800
C750        C  0.91299780  0.92016605  0.18834326     0.04700
C751        C  0.89694809  0.94337254  0.17557960    -0.11400
C752        C  0.88194691  0.94152528  0.14067319     0.24000
C753        C  0.88333229  0.91644157  0.11829887    -0.12000
C754        C  0.89905807  0.89294905  0.13131663     0.05400
C755        C  0.86510343  0.96639486  0.12797682     0.27800
C756        C  0.83658655  0.96919075  0.13934481    -0.12700
C757        C  0.82282706  0.99568337  0.13662981     0.05900
C758        C  0.83775559  0.01944225  0.12272288    -0.08600
C759        C  0.86497488  0.01551098  0.10666747     0.06700
C760        C  0.87866546  0.98905362  0.10941106    -0.13000
Br761      Br  0.86353149  0.91446637  0.06993954    -0.05100
Br762      Br  0.93570112  0.92439495  0.23416979     0.00600
Br763      Br  0.78467783  0.99978271  0.15592331     0.01000
Br764      Br  0.91681964  0.98428424  0.09055703    -0.03400
Br765      Br  0.89966051  0.85842389  0.10098534     0.01100
Br766      Br  0.89547290  0.97794486  0.20602389    -0.02700
Br767      Br  0.81726865  0.93722498  0.16152198    -0.03500
Br768      Br  0.88382728  0.04677614  0.08208846     0.00400
C769        C  0.71131166  0.51496922  0.12051487     0.01800
C770        C  0.72078747  0.49823084  0.15140598     0.04700
C771        C  0.70714275  0.47244106  0.15986224    -0.11400
C772        C  0.68412858  0.46334984  0.13737239     0.24000
C773        C  0.67485472  0.47994393  0.10636355    -0.12000
C774        C  0.68855919  0.50546513  0.09764517     0.05400
C775        C  0.66934677  0.43631043  0.14535196     0.27800
C776        C  0.67763559  0.41136195  0.12553575    -0.12700
C777        C  0.65966318  0.38763172  0.12498326     0.05900
C778        C  0.63333864  0.38882694  0.14430076    -0.08600
C779        C  0.62631583  0.41290060  0.16706080     0.06700
C780        C  0.64428287  0.43663115  0.16745599    -0.13000
Br781      Br  0.64294712  0.46768944  0.07599541    -0.05100
Br782      Br  0.75159552  0.51113245  0.18312883     0.00600
Br783      Br  0.67107335  0.35356139  0.09758658     0.01000
Br784      Br  0.63356151  0.47057518  0.19562831    -0.03400
Br785      Br  0.67691018  0.52645696  0.05281030     0.01100
Br786      Br  0.71942490  0.44980147  0.20259949    -0.02700
Br787      Br  0.71281698  0.41056658  0.09713200    -0.03500
Br788      Br  0.59082222  0.41474109  0.19465509     0.00400
C789        C  0.69912795  0.50843116  0.78788754     0.01800
C790        C  0.67975706  0.51825309  0.81624615     0.04700
C791        C  0.68962623  0.53107965  0.85037254    -0.11400
C792        C  0.71882477  0.53434629  0.85634190     0.24000
C793        C  0.73821858  0.52512796  0.82790637    -0.12000
C794        C  0.72846971  0.51203659  0.79382319     0.05400
C795        C  0.72897297  0.54633448  0.89343919     0.27800
C796        C  0.73040163  0.57594094  0.89906312    -0.12700
C797        C  0.73718883  0.58721225  0.93559870     0.05900
C798        C  0.74272265  0.56884727  0.96658071    -0.08600
C799        C  0.74246209  0.53913429  0.96035906     0.06700
C800        C  0.73548595  0.52797612  0.92389836    -0.13000
Br801      Br  0.77816857  0.53040185  0.83609270    -0.05100
Br802      Br  0.63954727  0.51553930  0.80796891     0.00600
Br803      Br  0.73921618  0.62782339  0.94291364     0.01000
Br804      Br  0.73333279  0.48740724  0.91599789    -0.03400
Br805      Br  0.75566194  0.49770191  0.75659745     0.01100
Br806      Br  0.66317611  0.54434277  0.88924306    -0.02700
Br807      Br  0.72211176  0.60089832  0.85684240    -0.03500
Br808      Br  0.74922980  0.51333312  0.00230066     0.00400
C809        C  0.82436396  0.63624298  0.12621136     0.01800
C810        C  0.82565410  0.64696164  0.16439598     0.04700
C811        C  0.84681486  0.66652547  0.17468882    -0.11400
C812        C  0.86675758  0.67539270  0.14703968     0.24000
C813        C  0.86683095  0.66305775  0.10987908    -0.12000
C814        C  0.84595024  0.64320766  0.09966361     0.05400
C815        C  0.88540295  0.69990361  0.15574359     0.27800
C816        C  0.87617404  0.72745909  0.14656375    -0.12700
C817        C  0.89276762  0.75108464  0.15625873     0.05900
C818        C  0.91860728  0.74741176  0.17556408    -0.08600
C819        C  0.92818133  0.71979267  0.18417755     0.06700
C820        C  0.91159288  0.69604162  0.17413406    -0.13000
Br821      Br  0.89449304  0.67485908  0.07229105    -0.05100
Br822      Br  0.79727578  0.63695422  0.20204444     0.00600
Br823      Br  0.88024479  0.78860298  0.14230979     0.01000
Br824      Br  0.92417269  0.65825007  0.18639421    -0.03400
Br825      Br  0.84726839  0.62517890  0.04941406     0.01100
Br826      Br  0.84734258  0.68293811  0.22591948    -0.02700
Br827      Br  0.84031100  0.73288404  0.12145831    -0.03500
Br828      Br  0.96295045  0.71457125  0.21198922     0.00400
C829        C  0.56083786  0.74160397  0.16081638     0.01800
C830        C  0.56341067  0.71421705  0.17648097     0.04700
C831        C  0.58914188  0.69934717  0.17338576    -0.11400
C832        C  0.61260541  0.71212177  0.15557181     0.24000
C833        C  0.61104635  0.74070266  0.14424393    -0.12000
C834        C  0.58512489  0.75545789  0.14660673     0.05400
C835        C  0.63723227  0.69436133  0.14382662     0.27800
C836        C  0.66016097  0.69030659  0.16881906    -0.12700
C837        C  0.68279224  0.67242567  0.15763036     0.05900
C838        C  0.68235421  0.65820441  0.12149016    -0.08600
C839        C  0.65931622  0.66253122  0.09641767     0.06700
C840        C  0.63702382  0.68074404  0.10747319    -0.13000
Br841      Br  0.64410961  0.75879746  0.12316147    -0.05100
Br842      Br  0.53155762  0.69706037  0.20216742     0.00600
Br843      Br  0.71481275  0.66848769  0.19136213     0.01000
Br844      Br  0.60563605  0.68675021  0.07306973    -0.03400
Br845      Br  0.58262021  0.79356049  0.12706837     0.01100
Br846      Br  0.59181508  0.66077478  0.19112071    -0.02700
Br847      Br  0.66027903  0.70920328  0.21841464    -0.03500
Br848      Br  0.65686100  0.64213096  0.04788433     0.00400
loop_ 
_geom_bond_atom_site_label_1 
_geom_bond_atom_site_label_2 
_geom_bond_distance 
_geom_bond_site_symmetry_2 
_ccdc_geom_bond_type 
O1            C4   1.267       .  A
O1           Cd6   2.456       .  S
C2           O11   1.264       .  A
C2            O7   1.264       .  A
C2          C798   1.478   1_554  S
O3            C9   1.266       .  A
O3           Cd6   2.493       .  S
C4           O12   1.267       .  A
C4          C838   1.483       .  S
C5           O10   1.267       .  A
C5            O8   1.262       .  A
C5          C769   1.478       .  S
Cd6          O13   2.450       .  S
Cd6          O12   2.465       .  S
Cd6          O11   2.465       .  S
Cd6           O7   2.459       .  S
Cd6          O10   2.494       .  S
Cd6           O8   2.434       .  S
C9           O13   1.264       .  A
C9          C809   1.483       .  S
O14          C17   1.266       .  A
O14         Cd19   2.466       .  S
C15          O24   1.266       .  A
C15          O20   1.265       .  A
C15         C749   1.484       .  S
O16          C22   1.263       .  A
O16         Cd19   2.415   1_455  S
C17          O25   1.265       .  A
C17         C738   1.476       .  S
C18          O23   1.267       .  A
C18          O21   1.264       .  A
C18         C818   1.477       .  S
Cd19         O26   2.498   1_655  S
Cd19         O25   2.452       .  S
Cd19         O24   2.487       .  S
Cd19         O20   2.456       .  S
Cd19         O23   2.495       .  S
Cd19         O21   2.435       .  S
C22          O26   1.269       .  A
C22         C709   1.477       .  S
O27          C30   1.266       .  A
O27         Cd32   2.443       .  S
C28          O37   1.266       .  A
C28          O33   1.264       .  A
C28         C689   1.477       .  S
O29          C35   1.263       .  A
O29         Cd32   2.452       .  S
C30          O38   1.265       .  A
C30         C658   1.473       .  S
C31          O36   1.266       .  A
C31          O34   1.260       .  A
C31         C669   1.470       .  S
Cd32         O39   2.466       .  S
Cd32         O38   2.451       .  S
Cd32         O37   2.466       .  S
Cd32         O33   2.445       .  S
Cd32         O36   2.494       .  S
Cd32         O34   2.410       .  S
C35          O39   1.265       .  A
C35         C638   1.478       .  S
O40          C43   1.265       .  A
O40         Cd45   2.442       .  S
C41          O50   1.264   1_455  A
C41          O46   1.266       .  A
C41         C729   1.479       .  S
O42          C48   1.265       .  A
O42         Cd45   2.482       .  S
C43          O51   1.266       .  A
C43         C618   1.478       .  S
C44          O49   1.266       .  A
C44          O47   1.264       .  A
C44         C598   1.473       .  S
Cd45         O52   2.420       .  S
Cd45         O51   2.474       .  S
Cd45         O50   2.448   1_455  S
Cd45         O46   2.472       .  S
Cd45         O49   2.480   1_455  S
Cd45         O47   2.431   1_455  S
C48          O52   1.261       .  A
C48         C678   1.469       .  S
O53          C56   1.265       .  A
O53         Cd58   2.429       .  S
C54          O63   1.265       .  A
C54          O59   1.266       .  A
C54         C649   1.471       .  S
O55          C61   1.268       .  A
O55         Cd58   2.499       .  S
C56          O64   1.267       .  A
C56         C569   1.476       .  S
C57          O62   1.269       .  A
C57          O60   1.263       .  A
C57         C529   1.477       .  S
Cd58         O65   2.408       .  S
Cd58         O64   2.470       .  S
Cd58         O63   2.443       .  S
Cd58         O59   2.462       .  S
Cd58         O62   2.495       .  S
Cd58         O60   2.412       .  S
C61          O65   1.262       .  A
C61         C558   1.476       .  S
O66          C69   1.266       .  A
O66         Cd71   2.440       .  S
C67          O76   1.267       .  A
C67          O72   1.263       .  A
C67         C518   1.487       .  S
O68          C74   1.268       .  A
O68         Cd71   2.499       .  S
C69          O77   1.265       .  A
C69         C489   1.470       .  S
C70          O75   1.268       .  A
C70          O73   1.263       .  A
C70         C549   1.477       .  S
Cd71         O78   2.420       .  S
Cd71         O77   2.441       .  S
Cd71         O76   2.469       .  S
Cd71         O72   2.453       .  S
Cd71         O75   2.470       .  S
Cd71         O73   2.441       .  S
C74          O78   1.263       .  A
C74         C478   1.483       .  S
O79          C82   1.267       .  A
O79         Cd84   2.455       .  S
C80          O89   1.263       .  A
C80          O85   1.268       .  A
C80         C789   1.482       .  S
O81          C87   1.267       .  A
O81         Cd84   2.471       .  S
C82          O90   1.266       .  A
C82         C449   1.484       .  S
C83          O88   1.268       .  A
C83          O86   1.264       .  A
C83         C409   1.465       .  S
Cd84         O91   2.408       .  S
Cd84         O90   2.458       .  S
Cd84         O89   2.453       .  S
Cd84         O85   2.472       .  S
Cd84         O88   2.467       .  S
Cd84         O86   2.408       .  S
C87          O91   1.262       .  A
C87         C429   1.466       .  S
O92          C95   1.264       .  A
O92         Cd97   2.432       .  S
C93         O102   1.264       .  A
C93          O98   1.264       .  A
C93         C498   1.466       .  S
O94         C100   1.266       .  A
O94         Cd97   2.474       .  S
C95         O103   1.267       .  A
C95         C389   1.473       .  S
C96         O101   1.267       .  A
C96          O99   1.264       .  A
C96         C369   1.474       .  S
Cd97        O104   2.413       .  S
Cd97        O103   2.455       .  S
Cd97        O102   2.440       .  S
Cd97         O98   2.446       .  S
Cd97        O101   2.484       .  S
Cd97         O99   2.421       .  S
C100        O104   1.262       .  A
C100        C438   1.474       .  S
O105        C108   1.264       .  A
O105       Cd110   2.441       .  S
C106        O115   1.266       .  A
C106        O111   1.264       .  A
C106        C538   1.481       .  S
O107        C113   1.267       .  A
O107       Cd110   2.496       .  S
C108        O116   1.266       .  A
C108        C338   1.472       .  S
C109        O114   1.266       .  A
C109        O112   1.262       .  A
C109        C358   1.477       .  S
Cd110       O117   2.432       .  S
Cd110       O116   2.467       .  S
Cd110       O115   2.476       .  S
Cd110       O111   2.459       .  S
Cd110       O114   2.487       .  S
Cd110       O112   2.440       .  S
C113        O117   1.264       .  A
C113        C829   1.479       .  S
O118        C121   1.266       .  A
O118       Cd123   2.447       .  S
C119        O128   1.267       .  A
C119        O124   1.263       .  A
C119        C718   1.480       .  S
O120        C126   1.264       .  A
O120       Cd123   2.457   1_545  S
C121        O129   1.265       .  A
C121        C309   1.471   1_565  S
C122        O127   1.264       .  A
C122        O125   1.262       .  A
C122        C349   1.471       .  S
Cd123       O130   2.454   1_565  S
Cd123       O129   2.451       .  S
Cd123       O128   2.480       .  S
Cd123       O124   2.453       .  S
Cd123       O127   2.461       .  S
Cd123       O125   2.466       .  S
C126        O130   1.263       .  A
C126        C509   1.475       .  S
O131        C134   1.264       .  A
O131       Cd136   2.440       .  S
C132        O141   1.263       .  A
C132        O137   1.266       .  A
C132        C278   1.477       .  S
O133        C139   1.267       .  A
O133       Cd136   2.478       .  S
C134        O142   1.267       .  A
C134        C629   1.484       .  S
C135        O140   1.267       .  A
C135        O138   1.263       .  A
C135        C458   1.477       .  S
Cd136       O143   2.439       .  S
Cd136       O142   2.485       .  S
Cd136       O141   2.445       .  S
Cd136       O137   2.480       .  S
Cd136       O140   2.484       .  S
Cd136       O138   2.425       .  S
C139        O143   1.264       .  A
C139        C298   1.481       .  S
O144        C147   1.264       .  A
O144       Cd149   2.452       .  S
C145        O154   1.267       .  A
C145        O150   1.263       .  A
C145        C378   1.480       .  S
O146        C152   1.267       .  A
O146       Cd149   2.490       .  S
C147        O155   1.264       .  A
C147        C318   1.472       .  S
C148        O153   1.266       .  A
C148        O151   1.261       .  A
C148        C289   1.477       .  S
Cd149       O156   2.414       .  S
Cd149       O155   2.454       .  S
Cd149       O154   2.478       .  S
Cd149       O150   2.442       .  S
Cd149       O153   2.485       .  S
Cd149       O151   2.439       .  S
C152        O156   1.263       .  A
C152        C609   1.474       .  S
O157        C160   1.267       .  A
O157       Cd162   2.469       .  S
C158        O167   1.267       .  A
C158        O163   1.267       .  A
C158        C778   1.479       .  S
O159        C165   1.268       .  A
O159       Cd162   2.491       .  S
C160        O168   1.265       .  A
C160        C269   1.481       .  S
C161        O166   1.268       .  A
C161        O164   1.264       .  A
C161        C249   1.480       .  S
Cd162       O169   2.438       .  S
Cd162       O168   2.462       .  S
Cd162       O167   2.468       .  S
Cd162       O163   2.455       .  S
Cd162       O166   2.484       .  S
Cd162       O164   2.441       .  S
C165        O169   1.263       .  A
C165        C578   1.476       .  S
O170        C173   1.268       .  A
O170       Cd175   2.472       .  S
C171        O180   1.265       .  A
C171        O176   1.265       .  A
C171        C469   1.494       .  S
O172        C178   1.269       .  A
O172       Cd175   2.510       .  S
C173        O181   1.264       .  A
C173        C229   1.472       .  S
C174        O179   1.269       .  A
C174        O177   1.263       .  A
C174        C258   1.479       .  S
Cd175       O182   2.426       .  S
Cd175       O181   2.430       .  S
Cd175       O180   2.489       .  S
Cd175       O176   2.449       .  S
Cd175       O179   2.491       .  S
Cd175       O177   2.445       .  S
C178        O182   1.262       .  A
C178        C758   1.481       .  S
O183        C186   1.265       .  A
O183       Cd188   2.434       .  S
C184        O193   1.265       .  A
C184        O189   1.263       .  A
C184        C329   1.477       .  S
O185        C191   1.267       .  A
O185       Cd188   2.483       .  S
C186        O194   1.266       .  A
C186        C418   1.479       .  S
C187        O192   1.268       .  A
C187        O190   1.262       .  A
C187        C698   1.476       .  S
Cd188       O195   2.435       .  S
Cd188       O194   2.477       .  S
Cd188       O193   2.487       .  S
Cd188       O189   2.445       .  S
Cd188       O192   2.501       .  S
Cd188       O190   2.430       .  S
C191        O195   1.263       .  A
C191        C209   1.477       .  S
O196        C199   1.265       .  A
O196       Cd201   2.441       .  S
C197        O206   1.265       .  A
C197        O202   1.263       .  A
C197        C238   1.475   1_565  S
O198        C204   1.264       .  A
O198       Cd201   2.458       .  S
C199        O207   1.266       .  A
C199        C589   1.476       .  S
C200        O205   1.266       .  A
C200        O203   1.263       .  A
C200        C398   1.479       .  S
Cd201       O208   2.461       .  S
Cd201       O207   2.472       .  S
Cd201       O206   2.474       .  S
Cd201       O202   2.442       .  S
Cd201       O205   2.477   1_565  S
Cd201       O203   2.428   1_565  S
C204        O208   1.265       .  A
C204        C218   1.479       .  S
C209        C210   1.412       .  A
C209        C214   1.413       .  A
C210        C211   1.405       .  A
C210       Br222   1.931       .  S
C211        C212   1.407       .  A
C211       Br226   1.932       .  S
C212        C215   1.481       .  S
C212        C213   1.408       .  A
C213        C214   1.408       .  A
C213       Br221   1.929       .  S
C214       Br225   1.930       .  S
C215        C216   1.407       .  A
C215        C220   1.407       .  A
C216        C217   1.405       .  A
C216       Br227   1.932       .  S
C217        C218   1.414       .  A
C217       Br223   1.931       .  S
C218        C219   1.413       .  A
C219        C220   1.408       .  A
C219       Br228   1.930       .  S
C220       Br224   1.929       .  S
C229        C230   1.410       .  A
C229        C234   1.411       .  A
C230        C231   1.406       .  A
C230       Br242   1.930       .  S
C231        C232   1.409       .  A
C231       Br246   1.930       .  S
C232        C235   1.479       .  S
C232        C233   1.407       .  A
C233        C234   1.405       .  A
C233       Br241   1.930   1_545  S
C234       Br245   1.931       .  S
C235        C236   1.406       .  A
C235        C240   1.409       .  A
C236        C237   1.405       .  A
C236       Br247   1.931       .  S
C237        C238   1.414       .  A
C237       Br243   1.933       .  S
C238        C239   1.410   1_545  A
C239        C240   1.407   1_565  A
C239       Br248   1.929       .  S
C240       Br244   1.930       .  S
C249        C250   1.412       .  A
C249        C254   1.413       .  A
C250        C251   1.408       .  A
C250       Br262   1.929       .  S
C251        C252   1.408       .  A
C251       Br266   1.929       .  S
C252        C255   1.486       .  S
C252        C253   1.409       .  A
C253        C254   1.408       .  A
C253       Br261   1.931       .  S
C254       Br265   1.931       .  S
C255        C256   1.408       .  A
C255        C260   1.410       .  A
C256        C257   1.409       .  A
C256       Br267   1.930       .  S
C257        C258   1.413       .  A
C257       Br263   1.930       .  S
C258        C259   1.411       .  A
C259        C260   1.408       .  A
C259       Br268   1.930       .  S
C260       Br264   1.931       .  S
C269        C270   1.414       .  A
C269        C274   1.413   1_554  A
C270        C271   1.407   1_554  A
C270       Br282   1.932       .  S
C271        C272   1.407       .  A
C271       Br286   1.931       .  S
C272        C275   1.483       .  S
C272        C273   1.408       .  A
C273        C274   1.408       .  A
C273       Br281   1.930       .  S
C274       Br285   1.929   1_556  S
C275        C276   1.409       .  A
C275        C280   1.408       .  A
C276        C277   1.408       .  A
C276       Br287   1.929       .  S
C277        C278   1.411       .  A
C277       Br283   1.930       .  S
C278        C279   1.412       .  A
C279        C280   1.406       .  A
C279       Br288   1.931       .  S
C280       Br284   1.930       .  S
C289        C290   1.413       .  A
C289        C294   1.412       .  A
C290        C291   1.407       .  A
C290       Br302   1.930       .  S
C291        C292   1.406       .  A
C291       Br306   1.928       .  S
C292        C295   1.481       .  S
C292        C293   1.408       .  A
C293        C294   1.405       .  A
C293       Br301   1.931       .  S
C294       Br305   1.932       .  S
C295        C296   1.405       .  A
C295        C300   1.409       .  A
C296        C297   1.407       .  A
C296       Br307   1.929       .  S
C297        C298   1.415       .  A
C297       Br303   1.931       .  S
C298        C299   1.413       .  A
C299        C300   1.407       .  A
C299       Br308   1.932       .  S
C300       Br304   1.933       .  S
C309        C310   1.411       .  A
C309        C314   1.410   1_545  A
C310        C311   1.405       .  A
C310       Br322   1.933       .  S
C311        C312   1.408       .  A
C311       Br326   1.930       .  S
C312        C315   1.480       .  S
C312        C313   1.409       .  A
C313        C314   1.406   1_545  A
C313       Br321   1.930   1_545  S
C314       Br325   1.930       .  S
C315        C316   1.408       .  A
C315        C320   1.408       .  A
C316        C317   1.405       .  A
C316       Br327   1.930       .  S
C317        C318   1.410       .  A
C317       Br323   1.931       .  S
C318        C319   1.411       .  A
C319        C320   1.406       .  A
C319       Br328   1.932       .  S
C320       Br324   1.930   1_545  S
C329        C330   1.411       .  A
C329        C334   1.413       .  A
C330        C331   1.404       .  A
C330       Br342   1.932       .  S
C331        C332   1.408       .  A
C331       Br346   1.931       .  S
C332        C335   1.481       .  S
C332        C333   1.408       .  A
C333        C334   1.409       .  A
C333       Br341   1.930       .  S
C334       Br345   1.930       .  S
C335        C336   1.408       .  A
C335        C340   1.409       .  A
C336        C337   1.406       .  A
C336       Br347   1.929       .  S
C337        C338   1.410   1_556  A
C337       Br343   1.930   1_556  S
C338        C339   1.411   1_554  A
C339        C340   1.406       .  A
C339       Br348   1.932   1_556  S
C340       Br344   1.929       .  S
C349        C350   1.411       .  A
C349        C354   1.409       .  A
C350        C351   1.408       .  A
C350       Br362   1.929       .  S
C351        C352   1.408       .  A
C351       Br366   1.929       .  S
C352        C355   1.480       .  S
C352        C353   1.409       .  A
C353        C354   1.403       .  A
C353       Br361   1.932       .  S
C354       Br365   1.932       .  S
C355        C356   1.406       .  A
C355        C360   1.408       .  A
C356        C357   1.406       .  A
C356       Br367   1.929       .  S
C357        C358   1.413       .  A
C357       Br363   1.931       .  S
C358        C359   1.412       .  A
C359        C360   1.406       .  A
C359       Br368   1.929       .  S
C360       Br364   1.931       .  S
C369        C370   1.410       .  A
C369        C374   1.412       .  A
C370        C371   1.404       .  A
C370       Br382   1.931       .  S
C371        C372   1.408   1_655  A
C371       Br386   1.929       .  S
C372        C375   1.482       .  S
C372        C373   1.409       .  A
C373        C374   1.408   1_455  A
C373       Br381   1.930       .  S
C374       Br385   1.930       .  S
C375        C376   1.407       .  A
C375        C380   1.408       .  A
C376        C377   1.409       .  A
C376       Br387   1.929       .  S
C377        C378   1.413       .  A
C377       Br383   1.929       .  S
C378        C379   1.415       .  A
C379        C380   1.405       .  A
C379       Br388   1.935       .  S
C380       Br384   1.933       .  S
C389        C390   1.412       .  A
C389        C394   1.413       .  A
C390        C391   1.403       .  A
C390       Br402   1.933       .  S
C391        C392   1.408       .  A
C391       Br406   1.934       .  S
C392        C395   1.478       .  S
C392        C393   1.406       .  A
C393        C394   1.407       .  A
C393       Br401   1.928       .  S
C394       Br405   1.931       .  S
C395        C396   1.406       .  A
C395        C400   1.406       .  A
C396        C397   1.408       .  A
C396       Br407   1.930       .  S
C397        C398   1.416       .  A
C397       Br403   1.932       .  S
C398        C399   1.413       .  A
C399        C400   1.403       .  A
C399       Br408   1.931       .  S
C400       Br404   1.931       .  S
C409        C410   1.407       .  A
C409        C414   1.408       .  A
C410        C411   1.404       .  A
C410       Br422   1.932       .  S
C411        C412   1.409       .  A
C411       Br426   1.930       .  S
C412        C415   1.479       .  S
C412        C413   1.408       .  A
C413        C414   1.406       .  A
C413       Br421   1.928       .  S
C414       Br425   1.929       .  S
C415        C416   1.407       .  A
C415        C420   1.406       .  A
C416        C417   1.404       .  A
C416       Br427   1.933       .  S
C417        C418   1.414       .  A
C417       Br423   1.934       .  S
C418        C419   1.414       .  A
C419        C420   1.409       .  A
C419       Br428   1.928       .  S
C420       Br424   1.929       .  S
C429        C430   1.408       .  A
C429        C434   1.409       .  A
C430        C431   1.402       .  A
C430       Br442   1.932       .  S
C431        C432   1.409       .  A
C431       Br446   1.931       .  S
C432        C435   1.476       .  S
C432        C433   1.408       .  A
C433        C434   1.406       .  A
C433       Br441   1.928       .  S
C434       Br445   1.929       .  S
C435        C436   1.408       .  A
C435        C440   1.405       .  A
C436        C437   1.406       .  A
C436       Br447   1.930       .  S
C437        C438   1.413       .  A
C437       Br443   1.932       .  S
C438        C439   1.413       .  A
C439        C440   1.403       .  A
C439       Br448   1.933       .  S
C440       Br444   1.931       .  S
C449        C450   1.415       .  A
C449        C454   1.418       .  A
C450        C451   1.404       .  A
C450       Br462   1.933       .  S
C451        C452   1.408       .  A
C451       Br466   1.934       .  S
C452        C455   1.481       .  S
C452        C453   1.406       .  A
C453        C454   1.410       .  A
C453       Br461   1.930       .  S
C454       Br465   1.931       .  S
C455        C456   1.408       .  A
C455        C460   1.407       .  A
C456        C457   1.407       .  A
C456       Br467   1.930       .  S
C457        C458   1.414       .  A
C457       Br463   1.932       .  S
C458        C459   1.411       .  A
C459        C460   1.405       .  A
C459       Br468   1.929       .  S
C460       Br464   1.929       .  S
C469        C470   1.422       .  A
C469        C474   1.419       .  A
C470        C471   1.411       .  A
C470       Br482   1.932       .  S
C471        C472   1.405       .  A
C471       Br486   1.931       .  S
C472        C475   1.485       .  S
C472        C473   1.407       .  A
C473        C474   1.406       .  A
C473       Br481   1.935       .  S
C474       Br485   1.935       .  S
C475        C476   1.407       .  A
C475        C480   1.408       .  A
C476        C477   1.406   1_655  A
C476       Br487   1.930       .  S
C477        C478   1.413       .  A
C477       Br483   1.931       .  S
C478        C479   1.416   1_455  A
C479        C480   1.410       .  A
C479       Br488   1.931       .  S
C480       Br484   1.930       .  S
C489        C490   1.411       .  A
C489        C494   1.412       .  A
C490        C491   1.404       .  A
C490       Br502   1.930       .  S
C491        C492   1.407   1_455  A
C491       Br506   1.930   1_455  S
C492        C495   1.474       .  S
C492        C493   1.407       .  A
C493        C494   1.403   1_655  A
C493       Br501   1.932       .  S
C494       Br505   1.932       .  S
C495        C496   1.407       .  A
C495        C500   1.408       .  A
C496        C497   1.401       .  A
C496       Br507   1.932   1_655  S
C497        C498   1.410       .  A
C497       Br503   1.931       .  S
C498        C499   1.410       .  A
C499        C500   1.405       .  A
C499       Br508   1.930       .  S
C500       Br504   1.930       .  S
C509        C510   1.412       .  A
C509        C514   1.413       .  A
C510        C511   1.409       .  A
C510       Br522   1.930       .  S
C511        C512   1.408       .  A
C511       Br526   1.928       .  S
C512        C515   1.481       .  S
C512        C513   1.408       .  A
C513        C514   1.403       .  A
C513       Br521   1.933       .  S
C514       Br525   1.934       .  S
C515        C516   1.406       .  A
C515        C520   1.405       .  A
C516        C517   1.407       .  A
C516       Br527   1.934       .  S
C517        C518   1.420       .  A
C517       Br523   1.934       .  S
C518        C519   1.417       .  A
C519        C520   1.407       .  A
C519       Br528   1.931       .  S
C520       Br524   1.930       .  S
C529        C530   1.411       .  A
C529        C534   1.413       .  A
C530        C531   1.405       .  A
C530       Br542   1.932       .  S
C531        C532   1.408       .  A
C531       Br546   1.931       .  S
C532        C535   1.484       .  S
C532        C533   1.409       .  A
C533        C534   1.409       .  A
C533       Br541   1.930       .  S
C534       Br545   1.930       .  S
C535        C536   1.407       .  A
C535        C540   1.410       .  A
C536        C537   1.408       .  A
C536       Br547   1.930       .  S
C537        C538   1.413       .  A
C537       Br543   1.927       .  S
C538        C539   1.413       .  A
C539        C540   1.406       .  A
C539       Br548   1.932       .  S
C540       Br544   1.933       .  S
C549        C550   1.413       .  A
C549        C554   1.412       .  A
C550        C551   1.408       .  A
C550       Br562   1.929       .  S
C551        C552   1.406       .  A
C551       Br566   1.929       .  S
C552        C555   1.481       .  S
C552        C553   1.409       .  A
C553        C554   1.405       .  A
C553       Br561   1.932       .  S
C554       Br565   1.933       .  S
C555        C556   1.406       .  A
C555        C560   1.409       .  A
C556        C557   1.404       .  A
C556       Br567   1.930       .  S
C557        C558   1.413       .  A
C557       Br563   1.932       .  S
C558        C559   1.412       .  A
C559        C560   1.409       .  A
C559       Br568   1.930       .  S
C560       Br564   1.929       .  S
C569        C570   1.413       .  A
C569        C574   1.411       .  A
C570        C571   1.410       .  A
C570       Br582   1.931       .  S
C571        C572   1.409       .  A
C571       Br586   1.928       .  S
C572        C575   1.484       .  S
C572        C573   1.409       .  A
C573        C574   1.403       .  A
C573       Br581   1.932       .  S
C574       Br585   1.934       .  S
C575        C576   1.409       .  A
C575        C580   1.409       .  A
C576        C577   1.408       .  A
C576       Br587   1.929       .  S
C577        C578   1.409       .  A
C577       Br583   1.926       .  S
C578        C579   1.412       .  A
C579        C580   1.407       .  A
C579       Br588   1.931       .  S
C580       Br584   1.931       .  S
C589        C590   1.412       .  A
C589        C594   1.411       .  A
C590        C591   1.408       .  A
C590       Br602   1.927       .  S
C591        C592   1.407       .  A
C591       Br606   1.928       .  S
C592        C595   1.480       .  S
C592        C593   1.409       .  A
C593        C594   1.404       .  A
C593       Br601   1.933       .  S
C594       Br605   1.933       .  S
C595        C596   1.408       .  A
C595        C600   1.408       .  A
C596        C597   1.405       .  A
C596       Br607   1.928       .  S
C597        C598   1.409       .  A
C597       Br603   1.929       .  S
C598        C599   1.412       .  A
C599        C600   1.406       .  A
C599       Br608   1.930       .  S
C600       Br604   1.930       .  S
C609        C610   1.413   1_545  A
C609        C614   1.410       .  A
C610        C611   1.407       .  A
C610       Br622   1.930       .  S
C611        C612   1.408       .  A
C611       Br626   1.930       .  S
C612        C615   1.480       .  S
C612        C613   1.407       .  A
C613        C614   1.404   1_565  A
C613       Br621   1.930       .  S
C614       Br625   1.931       .  S
C615        C616   1.408       .  A
C615        C620   1.406       .  A
C616        C617   1.403       .  A
C616       Br627   1.934       .  S
C617        C618   1.413       .  A
C617       Br623   1.934       .  S
C618        C619   1.414       .  A
C619        C620   1.409       .  A
C619       Br628   1.928       .  S
C620       Br624   1.929       .  S
C629        C630   1.416       .  A
C629        C634   1.414       .  A
C630        C631   1.410       .  A
C630       Br642   1.931       .  S
C631        C632   1.408       .  A
C631       Br646   1.930       .  S
C632        C635   1.484       .  S
C632        C633   1.408       .  A
C633        C634   1.405       .  A
C633       Br641   1.933       .  S
C634       Br645   1.932       .  S
C635        C636   1.408       .  A
C635        C640   1.409       .  A
C636        C637   1.405       .  A
C636       Br647   1.933       .  S
C637        C638   1.414       .  A
C637       Br643   1.934       .  S
C638        C639   1.412       .  A
C639        C640   1.409       .  A
C639       Br648   1.930       .  S
C640       Br644   1.929       .  S
C649        C650   1.410       .  A
C649        C654   1.410       .  A
C650        C651   1.406   1_554  A
C650       Br662   1.930       .  S
C651        C652   1.408       .  A
C651       Br666   1.930       .  S
C652        C655   1.478       .  S
C652        C653   1.408       .  A
C653        C654   1.404   1_556  A
C653       Br661   1.930       .  S
C654       Br665   1.930       .  S
C655        C656   1.407       .  A
C655        C660   1.408       .  A
C656        C657   1.404       .  A
C656       Br667   1.931       .  S
C657        C658   1.412       .  A
C657       Br663   1.933       .  S
C658        C659   1.412       .  A
C659        C660   1.406       .  A
C659       Br668   1.931       .  S
C660       Br664   1.930       .  S
C669        C670   1.410       .  A
C669        C674   1.411       .  A
C670        C671   1.406       .  A
C670       Br682   1.932       .  S
C671        C672   1.411       .  A
C671       Br686   1.932       .  S
C672        C675   1.478       .  S
C672        C673   1.405       .  A
C673        C674   1.404       .  A
C673       Br681   1.928       .  S
C674       Br685   1.931       .  S
C675        C676   1.410       .  A
C675        C680   1.405       .  A
C676        C677   1.405       .  A
C676       Br687   1.931       .  S
C677        C678   1.410       .  A
C677       Br683   1.931       .  S
C678        C679   1.410       .  A
C679        C680   1.404       .  A
C679       Br688   1.929       .  S
C680       Br684   1.928       .  S
C689        C690   1.413       .  A
C689        C694   1.413       .  A
C690        C691   1.404       .  A
C690       Br702   1.934       .  S
C691        C692   1.409       .  A
C691       Br706   1.933       .  S
C692        C695   1.482       .  S
C692        C693   1.407       .  A
C693        C694   1.409       .  A
C693       Br701   1.927       .  S
C694       Br705   1.930       .  S
C695        C696   1.408       .  A
C695        C700   1.408       .  A
C696        C697   1.408       .  A
C696       Br707   1.928       .  S
C697        C698   1.411       .  A
C697       Br703   1.928       .  S
C698        C699   1.411       .  A
C699        C700   1.405       .  A
C699       Br708   1.931       .  S
C700       Br704   1.931       .  S
C709        C710   1.411       .  A
C709        C714   1.412       .  A
C710        C711   1.405       .  A
C710       Br722   1.933       .  S
C711        C712   1.409       .  A
C711       Br726   1.931       .  S
C712        C715   1.484       .  S
C712        C713   1.409       .  A
C713        C714   1.409       .  A
C713       Br721   1.929       .  S
C714       Br725   1.929       .  S
C715        C716   1.407       .  A
C715        C720   1.409       .  A
C716        C717   1.409       .  A
C716       Br727   1.929       .  S
C717        C718   1.414       .  A
C717       Br723   1.931       .  S
C718        C719   1.412       .  A
C719        C720   1.407       .  A
C719       Br728   1.931       .  S
C720       Br724   1.933       .  S
C729        C730   1.414   1_455  A
C729        C734   1.414       .  A
C730        C731   1.407       .  A
C730       Br742   1.931       .  S
C731        C732   1.408       .  A
C731       Br746   1.931       .  S
C732        C735   1.482       .  S
C732        C733   1.407       .  A
C733        C734   1.407   1_655  A
C733       Br741   1.930       .  S
C734       Br745   1.932       .  S
C735        C736   1.409       .  A
C735        C740   1.407   1_655  A
C736        C737   1.408       .  A
C736       Br747   1.930       .  S
C737        C738   1.411       .  A
C737       Br743   1.930       .  S
C738        C739   1.413   1_655  A
C739        C740   1.406       .  A
C739       Br748   1.932       .  S
C740       Br744   1.930       .  S
C749        C750   1.413       .  A
C749        C754   1.415       .  A
C750        C751   1.406       .  A
C750       Br762   1.933       .  S
C751        C752   1.410       .  A
C751       Br766   1.932       .  S
C752        C755   1.487       .  S
C752        C753   1.408       .  A
C753        C754   1.411       .  A
C753       Br761   1.928       .  S
C754       Br765   1.927       .  S
C755        C756   1.409       .  A
C755        C760   1.408       .  A
C756        C757   1.410       .  A
C756       Br767   1.930       .  S
C757        C758   1.414   1_565  A
C757       Br763   1.930       .  S
C758        C759   1.411       .  A
C759        C760   1.407   1_545  A
C759       Br768   1.929       .  S
C760       Br764   1.928       .  S
C769        C770   1.412       .  A
C769        C774   1.413       .  A
C770        C771   1.411       .  A
C770       Br782   1.929       .  S
C771        C772   1.409       .  A
C771       Br786   1.927       .  S
C772        C775   1.484       .  S
C772        C773   1.408       .  A
C773        C774   1.403       .  A
C773       Br781   1.934       .  S
C774       Br785   1.934       .  S
C775        C776   1.408       .  A
C775        C780   1.408       .  A
C776        C777   1.408       .  A
C776       Br787   1.929       .  S
C777        C778   1.412       .  A
C777       Br783   1.930       .  S
C778        C779   1.412       .  A
C779        C780   1.407       .  A
C779       Br788   1.929       .  S
C780       Br784   1.929       .  S
C789        C790   1.413       .  A
C789        C794   1.416       .  A
C790        C791   1.406       .  A
C790       Br802   1.931       .  S
C791        C792   1.408       .  A
C791       Br806   1.931       .  S
C792        C795   1.483       .  S
C792        C793   1.407       .  A
C793        C794   1.409       .  A
C793       Br801   1.931       .  S
C794       Br805   1.932       .  S
C795        C796   1.408       .  A
C795        C800   1.408       .  A
C796        C797   1.408       .  A
C796       Br807   1.929       .  S
C797        C798   1.412       .  A
C797       Br803   1.930       .  S
C798        C799   1.414       .  A
C799        C800   1.406       .  A
C799       Br808   1.933   1_556  S
C800       Br804   1.931       .  S
C809        C810   1.414       .  A
C809        C814   1.413       .  A
C810        C811   1.409       .  A
C810       Br822   1.931       .  S
C811        C812   1.409       .  A
C811       Br826   1.930       .  S
C812        C815   1.486       .  S
C812        C813   1.408       .  A
C813        C814   1.408       .  A
C813       Br821   1.929       .  S
C814       Br825   1.931       .  S
C815        C816   1.409       .  A
C815        C820   1.410       .  A
C816        C817   1.404       .  A
C816       Br827   1.930       .  S
C817        C818   1.409       .  A
C817       Br823   1.930       .  S
C818        C819   1.412       .  A
C819        C820   1.411       .  A
C819       Br828   1.929       .  S
C820       Br824   1.928       .  S
C829        C830   1.411       .  A
C829        C834   1.413       .  A
C830        C831   1.406       .  A
C830       Br842   1.931       .  S
C831        C832   1.408       .  A
C831       Br846   1.929       .  S
C832        C835   1.485       .  S
C832        C833   1.409       .  A
C833        C834   1.409       .  A
C833       Br841   1.929       .  S
C834       Br845   1.929       .  S
C835        C836   1.407       .  A
C835        C840   1.408       .  A
C836        C837   1.410       .  A
C836       Br847   1.928       .  S
C837        C838   1.415       .  A
C837       Br843   1.930       .  S
C838        C839   1.415       .  A
C839        C840   1.406       .  A
C839       Br848   1.933       .  S
C840       Br844   1.934       .  S
