geometry optimzed in LAMMPS
_audit_creation_date              2020-12-01 
_audit_creation_method            'lammps2cif' 
_symmetry_space_group_name_H-M    'P1' 
_symmetry_Int_Tables_number       1 
_symmetry_cell_setting            triclinic 
loop_ 
_symmetry_equiv_pos_as_xyz 
  x,y,z 
_cell_length_a                    38.86032017 
_cell_length_b                    38.89398712422888 
_cell_length_c                    73.38238587244724 
_cell_angle_alpha                 90.04255608780254 
_cell_angle_beta                  90.04954445604183 
_cell_angle_gamma                 90.32148921655197 
loop_ 
_atom_site_label 
_atom_site_type_symbol 
_atom_site_fract_x 
_atom_site_fract_y 
_atom_site_fract_z 
_atom_site_charge 
C1          C  0.83578854  0.62587197  0.32178208     0.79900
N2          N  0.85007071  0.65443345  0.31451474    -0.78400
C3          C  0.87924860  0.66847669  0.32137349     0.82400
N4          N  0.89457696  0.65344667  0.33600095    -0.78300
C5          C  0.88054091  0.62452487  0.34353402     0.82500
N6          N  0.85117042  0.61091429  0.33630032    -0.80000
C7          C  0.78207341  0.75215287  0.10888819     0.79900
N8          N  0.76209362  0.77149203  0.09777480    -0.78400
C9          C  0.73084166  0.75962245  0.09198222     0.82400
N10         N  0.71954359  0.72813106  0.09775537    -0.78300
C11         C  0.73973041  0.70872138  0.10887954     0.82500
N12         N  0.77063768  0.72105056  0.11426526    -0.80000
C13         C  0.34129288  0.73160480  0.32935460     0.79900
N14         N  0.35757388  0.74660728  0.34372572    -0.78400
C15         C  0.34633566  0.77717562  0.35056597     0.82400
N16         N  0.31836009  0.79251207  0.34284072    -0.78300
C17         C  0.30206801  0.77754622  0.32843304     0.82500
N18         N  0.31391825  0.74743430  0.32176786    -0.80000
C19         C  0.86388895  0.29177320  0.09848376     0.79900
N20         N  0.87542953  0.26092397  0.10464091    -0.78400
C21         C  0.85887506  0.24441867  0.11834974     0.82400
N22         N  0.83089371  0.25898173  0.12589960    -0.78300
C23         C  0.81900712  0.28964006  0.12014245     0.82500
N24         N  0.83559628  0.30618829  0.10632719    -0.80000
N25         N  0.97136423  0.92221594  0.24159720    -0.06400
N26         N  0.95118473  0.89566344  0.24527512    -0.58500
N27         N  0.99160776  0.00310777  0.25211442    -0.06100
N28         N  0.98350791  0.02661932  0.26433636    -0.60600
N29         N  0.96774485  0.00125152  0.23943691    -0.05700
N30         N  0.94318263  0.02375574  0.24261510    -0.58500
N31         N  0.99585272  0.92476005  0.25392154    -0.05400
N32         N  0.99293345  0.90020345  0.26619156    -0.61000
C33         C  0.96500853  0.88220743  0.26066068     0.95800
C34         C  0.95352029  0.03963627  0.25807875     0.95600
N35         N  0.09582814  0.00745782  0.23790912    -0.06600
N36         N  0.11427319  0.03605996  0.23880163    -0.59100
N37         N  0.07655520  0.92867220  0.25316396    -0.04700
N38         N  0.08519447  0.90649880  0.26600710    -0.60300
N39         N  0.09928025  0.92829439  0.23991203    -0.06600
N40         N  0.12352854  0.90565794  0.24329632    -0.59400
N41         N  0.07206663  0.00730368  0.25066274    -0.04300
N42         N  0.07368728  0.03563654  0.26043521    -0.60400
Mn43       Mn  0.03413984  0.96599128  0.25304452     1.18400
C44         C  0.10008974  0.05331017  0.25294689     0.97900
C45         C  0.11438240  0.89206675  0.25952658     0.98500
N46         N  0.96730061  0.99792592  0.19670019    -0.06600
N47         N  0.94509189  0.02281656  0.19360133    -0.62900
N48         N  0.99298626  0.91985014  0.18540804    -0.05400
N49         N  0.98624846  0.89614335  0.17306132    -0.63600
N50         N  0.96981547  0.91903543  0.19845535    -0.06100
N51         N  0.94694041  0.89449972  0.19530030    -0.63200
N52         N  0.99117997  0.99778733  0.18400342    -0.05000
N53         N  0.98573503  0.02217728  0.17197931    -0.63900
Mn54       Mn  0.96784138  0.95997111  0.21905627     1.10700
C55         C  0.95700888  0.03759189  0.17811299     0.99100
C56         C  0.95779489  0.88025249  0.17950734     0.99200
N57         N  0.09736485  0.92377856  0.19727739    -0.06100
N58         N  0.11836574  0.89743556  0.19534645    -0.61500
N59         N  0.07241560  0.00081843  0.18241271    -0.05500
N60         N  0.07978981  0.02229434  0.16895512    -0.58200
N61         N  0.09591458  0.00301719  0.19526362    -0.06800
N62         N  0.11926786  0.02640718  0.19105979    -0.61100
N63         N  0.07290876  0.92239783  0.18491866    -0.05800
N64         N  0.07655090  0.89535186  0.17435128    -0.58300
Mn65       Mn  0.09825706  0.96566393  0.21763214     1.20200
Mn66       Mn  0.03231021  0.96032588  0.18369144     1.10100
Cl67       Cl  0.03309420  0.96301548  0.21836173    -0.86200
C68         C  0.10493150  0.87997735  0.18097956     0.96100
C69         C  0.10881978  0.03846585  0.17472537     0.95900
C70         C  0.21322845  0.63320086  0.09904261     0.79900
N71         N  0.19825169  0.66148564  0.10645148    -0.78400
C72         C  0.21321911  0.67787000  0.12081605     0.82400
N73         N  0.24327670  0.66585099  0.12758291    -0.78300
C74         C  0.25847340  0.63779418  0.12033198     0.82500
N75         N  0.24319579  0.62141531  0.10613554    -0.80000
C76         C  0.76923700  0.15297697  0.32988819     0.79900
N77         N  0.75613058  0.18326657  0.32435683    -0.78400
C78         C  0.72778187  0.19679113  0.33222870     0.82400
N79         N  0.71203756  0.17933687  0.34601851    -0.78300
C80         C  0.72494298  0.14859786  0.35178662     0.82500
N81         N  0.75351145  0.13560458  0.34359301    -0.80000
C82         C  0.18073201  0.31662635  0.32892304     0.79900
N83         N  0.16642239  0.28879219  0.32051640    -0.78400
C84         C  0.17969512  0.27687581  0.30461628     0.82400
N85         N  0.20729946  0.29294657  0.29723231    -0.78300
C86         C  0.22177817  0.32070132  0.30535436     0.82500
N87         N  0.20847354  0.33238650  0.32126416    -0.80000
C88         C  0.35113544  0.15054260  0.09337072     0.79900
N89         N  0.36395297  0.18055907  0.10029556    -0.78400
C90         C  0.34536128  0.19921881  0.11243393     0.82400
N91         N  0.31403560  0.18749759  0.11775907    -0.78300
C92         C  0.30065936  0.15787152  0.11097991     0.82500
N93         N  0.31939134  0.13939644  0.09877890    -0.80000
N94         N  0.57498548  0.40002357  0.24670597    -0.06400
N95         N  0.59756143  0.37599303  0.25062993    -0.58500
N96         N  0.49619923  0.42704167  0.25790861    -0.06100
N97         N  0.46794683  0.42596893  0.26776776    -0.60600
N98         N  0.49584774  0.40270611  0.24545459    -0.05700
N99         N  0.46712322  0.38462121  0.24652329    -0.58500
N100        N  0.57451882  0.42356399  0.25957782    -0.05400
N101        N  0.59640617  0.41572988  0.27269366    -0.61000
C102        C  0.61087720  0.38625216  0.26676361     0.95800
C103        C  0.45011617  0.39938325  0.26054520     0.95600
N104        N  0.50058460  0.53056707  0.24483400    -0.06600
N105        N  0.47758840  0.55476510  0.24767090    -0.59100
N106        N  0.57798173  0.50402167  0.25865535    -0.04700
N107        N  0.60333571  0.50762880  0.27042566    -0.60300
N108        N  0.57965354  0.52780939  0.24594558    -0.06600
N109        N  0.60629346  0.54833793  0.24891467    -0.59400
N110        N  0.49947794  0.50755777  0.25793775    -0.04300
N111        N  0.47597303  0.51590999  0.27012978    -0.60400
Mn112      Mn  0.53702571  0.46549649  0.25910759     1.18400
C113        C  0.46227563  0.54520007  0.26341406     0.97900
C114        C  0.62080602  0.53531268  0.26422242     0.98500
N115        N  0.49789338  0.39956020  0.20292174    -0.06600
N116        N  0.47513761  0.37538864  0.19900383    -0.62900
N117        N  0.57707935  0.42235250  0.19096169    -0.05400
N118        N  0.60235718  0.41757414  0.17938992    -0.63600
N119        N  0.57698223  0.39849359  0.20362591    -0.06100
N120        N  0.60242167  0.37664149  0.20083361    -0.63200
N121        N  0.49892068  0.42272592  0.18990949    -0.05000
N122        N  0.47732642  0.41445969  0.17667725    -0.63900
Mn123      Mn  0.53654747  0.39901465  0.22478731     1.10700
C124        C  0.46229993  0.38513333  0.18268845     0.99100
C125        C  0.61801719  0.38910184  0.18564800     0.99200
N126        N  0.58062255  0.52615808  0.20275886    -0.06100
N127        N  0.60546764  0.54826143  0.19887754    -0.61500
N128        N  0.50091216  0.50356497  0.18998571    -0.05500
N129        N  0.47581593  0.50800809  0.17821039    -0.58200
N130        N  0.50153197  0.52853902  0.20207424    -0.06800
N131        N  0.47663373  0.55065638  0.19872490    -0.61100
N132        N  0.57911947  0.50188269  0.19030813    -0.05800
N133        N  0.60261945  0.50692131  0.17768902    -0.58300
Mn134      Mn  0.54074808  0.52956238  0.22388701     1.20200
Mn135      Mn  0.53885087  0.46274071  0.18988162     1.10100
Cl136      Cl  0.53832274  0.46421834  0.22442592    -0.86200
C137        C  0.61910447  0.53560473  0.18329479     0.96100
C138        C  0.46084448  0.53736963  0.18380589     0.95900
N139        N  0.54448066  0.95544402  0.49739004    -0.36900
N140        N  0.57994536  0.99467277  0.46967805    -0.57400
N141        N  0.54450989  0.95411760  0.44109065    -0.36900
N142        N  0.50529650  0.91827910  0.46912230    -0.57400
C143        C  0.55819734  0.98112322  0.50761597     0.26700
C144        C  0.51925899  0.94065283  0.50737311     0.26700
C145        C  0.56089473  0.97788173  0.43070854     0.26700
C146        C  0.52090520  0.93782811  0.43045232     0.26700
C147        C  0.59743107  0.00613874  0.48447224     0.35300
C148        C  0.59792174  0.00516657  0.45494503     0.35300
C149        C  0.49400859  0.90111620  0.48400784     0.35300
C150        C  0.49339800  0.90088067  0.45441528     0.35300
C151        C  0.54166454  0.98246704  0.52431429    -0.22200
C152        C  0.51706785  0.95697039  0.52416075    -0.22200
C153        C  0.54799220  0.97623505  0.41308538    -0.22200
C154        C  0.52289629  0.95097979  0.41291395    -0.22200
C155        C  0.62643155  0.02429958  0.47916064    -0.23200
C156        C  0.62682316  0.02363231  0.46047378    -0.23200
C157        C  0.47448542  0.87288613  0.47877802    -0.23200
C158        C  0.47385536  0.87286684  0.46006695    -0.23200
C159        C  0.58639017  0.00220772  0.50266940    -0.18600
C160        C  0.49930477  0.91168830  0.50225040    -0.18600
C161        C  0.49833146  0.91080400  0.43598029    -0.18600
C162        C  0.58771922  0.00043420  0.43654385    -0.18600
H163        H  0.54684058  0.99993131  0.53548540     0.14300
H164        H  0.49958006  0.95105160  0.53520928     0.14300
H165        H  0.55584939  0.99160817  0.40150970     0.14300
H166        H  0.50784954  0.94322545  0.40117801     0.14300
H167        H  0.64515712  0.03697036  0.48782768     0.12600
H168        H  0.64612728  0.03564565  0.45192999     0.12600
H169        H  0.46152575  0.85454967  0.48752372     0.12600
H170        H  0.46029638  0.85439103  0.45164248     0.12600
H171        H  0.55319074  0.94692882  0.48481674     0.25900
H172        H  0.55010283  0.94863881  0.45456010     0.25900
N173        N  0.04732756  0.45641378  0.99739507    -0.36900
N174        N  0.00455801  0.42258025  0.96986284    -0.57400
N175        N  0.04160149  0.45921129  0.94108454    -0.36900
N176        N  0.08047228  0.49680184  0.96875300    -0.57400
C177        C  0.02284208  0.44202995  0.00807620     0.26700
C178        C  0.06350907  0.48079221  0.00742645     0.26700
C179        C  0.01652728  0.44390736  0.93115054     0.26700
C180        C  0.05592620  0.48411737  0.93064627     0.26700
C181        C  0.99457107  0.40466405  0.98475485     0.35300
C182        C  0.99250609  0.40512616  0.95522331     0.35300
C183        C  0.10004758  0.50660539  0.98307570     0.35300
C184        C  0.09663656  0.50852959  0.95369273     0.35300
C185        C  0.02389643  0.45703367  0.02522874    -0.22200
C186        C  0.04958389  0.48149409  0.02481973    -0.22200
C187        C  0.01521320  0.45893924  0.91402157    -0.22200
C188        C  0.04007780  0.48434381  0.91371196    -0.22200
C189        C  0.97573066  0.37591852  0.97957845    -0.23200
C190        C  0.97447256  0.37616529  0.96088214    -0.23200
C191        C  0.12860539  0.52488241  0.97713274    -0.23200
C192        C  0.12642358  0.52617908  0.95852257    -0.23200
C193        C  0.00035194  0.41495847  0.00299466    -0.18600
C194        C  0.09117854  0.50171752  0.00151805    -0.18600
C195        C  0.08393600  0.50550013  0.93570509    -0.18600
C196        C  0.99576769  0.41588455  0.93685796    -0.18600
H197        H  0.00778692  0.45103846  0.03683790     0.14300
H198        H  0.05706347  0.49800481  0.03604189     0.14300
H199        H  0.99816724  0.45224966  0.90288154     0.14300
H200        H  0.04594637  0.50094866  0.90228709     0.14300
H201        H  0.96395065  0.35686288  0.98836260     0.12600
H202        H  0.96148064  0.35731539  0.95243181     0.12600
H203        H  0.14865023  0.53653396  0.98536337     0.12600
H204        H  0.14455005  0.53902938  0.94960641     0.12600
H205        H  0.05374867  0.44891184  0.98424733     0.25900
H206        H  0.04965400  0.45181224  0.95397308     0.25900
N207        N  0.03732268  0.45438370  0.44971299    -0.36900
N208        N  0.07358998  0.41266898  0.47654652    -0.57400
N209        N  0.03498267  0.44663828  0.50569953    -0.36900
N210        N  0.99834532  0.48786302  0.47867189    -0.57400
C211        C  0.05316068  0.43188258  0.43848694     0.26700
C212        C  0.01446982  0.47216734  0.43956177     0.26700
C213        C  0.05780206  0.42878712  0.51586931     0.26700
C214        C  0.01787336  0.46810570  0.51701379     0.26700
C215        C  0.08842321  0.39980244  0.46140334     0.35300
C216        C  0.08904958  0.39748891  0.49087066     0.35300
C217        C  0.98408255  0.50422798  0.46433570     0.35300
C218        C  0.98344974  0.50075477  0.49379283     0.35300
C219        C  0.04057070  0.43586148  0.42090755    -0.22200
C220        C  0.01626895  0.46127115  0.42158049    -0.22200
C221        C  0.05444138  0.43837496  0.53400279    -0.22200
C222        C  0.02931642  0.46310756  0.53471848    -0.22200
C223        C  0.11345598  0.37616954  0.46608715    -0.23200
C224        C  0.11379162  0.37460285  0.48474571    -0.23200
C225        C  0.95973107  0.52750618  0.47034621    -0.23200
C226        C  0.95918145  0.52519105  0.48897096    -0.23200
C227        C  0.07919605  0.40825792  0.44336503    -0.18600
C228        C  0.99204531  0.49815232  0.44584002    -0.18600
C229        C  0.99244458  0.49237257  0.51196133    -0.18600
C230        C  0.08195207  0.40435463  0.50943036    -0.18600
H231        H  0.04797910  0.42181358  0.40880570     0.14300
H232        H  0.00134745  0.47039914  0.41011861     0.14300
H233        H  0.06894534  0.42891411  0.54553835     0.14300
H234        H  0.02078330  0.47623426  0.54689990     0.14300
H235        H  0.12964459  0.36141963  0.45702024     0.12600
H236        H  0.13052715  0.35853533  0.49284763     0.12600
H237        H  0.94387122  0.54432965  0.46218170     0.12600
H238        H  0.94304131  0.54022088  0.49792838     0.12600
H239        H  0.04278816  0.45840437  0.46338327     0.25900
H240        H  0.03094043  0.44391034  0.49182717     0.25900
N241        N  0.55287329  0.96481426  0.95281977    -0.36900
N242        N  0.51014053  0.99864706  0.98053156    -0.57400
N243        N  0.54576831  0.96090918  0.00905839    -0.36900
N244        N  0.58523311  0.92380362  0.98104017    -0.57400
C245        C  0.52945338  0.98058734  0.94212828     0.26700
C246        C  0.56876652  0.94090047  0.94244278     0.26700
C247        C  0.52081846  0.97606480  0.01912672     0.26700
C248        C  0.56039316  0.93613454  0.01940840     0.26700
C249        C  0.50031683  0.01670057  0.96570063     0.35300
C250        C  0.49650860  0.01477058  0.99515494     0.35300
C251        C  0.60431622  0.91350488  0.96662881     0.35300
C252        C  0.60095418  0.91168361  0.99613062     0.35300
C253        C  0.53102610  0.96711092  0.92463887    -0.22200
C254        C  0.55578896  0.94212553  0.92483211    -0.22200
C255        C  0.51998066  0.96107664  0.03625695    -0.22200
C256        C  0.54489307  0.93592518  0.03643752    -0.22200
C257        C  0.47994073  0.04414831  0.97088012    -0.23200
C258        C  0.47757481  0.04297875  0.98951496    -0.23200
C259        C  0.63215606  0.89448595  0.97253016    -0.23200
C260        C  0.63006952  0.89330850  0.99119110    -0.23200
C261        C  0.50739357  0.00756428  0.94744880    -0.18600
C262        C  0.59547958  0.91879367  0.94817214    -0.18600
C263        C  0.58827267  0.91474042  0.01419633    -0.18600
C264        C  0.49943111  0.00362381  0.01347505    -0.18600
H265        H  0.51592251  0.97448189  0.91289079     0.14300
H266        H  0.56336502  0.92674224  0.91323351     0.14300
H267        H  0.50315737  0.96757140  0.04747651     0.14300
H268        H  0.55096482  0.91944931  0.04786091     0.14300
H269        H  0.46773196  0.06287311  0.96213102     0.12600
H270        H  0.46326379  0.06074823  0.99791807     0.12600
H271        H  0.65163547  0.88229689  0.96424821     0.12600
H272        H  0.64774697  0.87988769  0.00004966     0.12600
H273        H  0.55863262  0.97114923  0.96618664     0.25900
H274        H  0.55351231  0.96802636  0.99612046     0.25900
C275        C  0.72910941  0.81432426  0.81093911     0.79900
N276        N  0.71746191  0.82595635  0.82721480    -0.78400
C277        C  0.68924570  0.81175202  0.83517499     0.82400
N278        N  0.67276996  0.78522765  0.82666754    -0.78300
C279        C  0.68418429  0.77341131  0.81027293     0.82500
N280        N  0.71233052  0.78809349  0.80259535    -0.80000
C281        C  0.80274564  0.26145111  0.83607788     0.79900
N282        N  0.82146966  0.28049293  0.84807872    -0.78400
C283        C  0.85274993  0.26939756  0.85395188     0.82400
N284        N  0.86517758  0.23892101  0.84766751    -0.78300
C285        C  0.84646280  0.21966148  0.83574052     0.82500
N286        N  0.81556362  0.23128061  0.82997115    -0.80000
C287        C  0.37920256  0.12522767  0.84756573     0.79900
N288        N  0.34912961  0.11173236  0.84104925    -0.78400
C289        C  0.33155244  0.12812196  0.82760815     0.82400
N290        N  0.34443784  0.15771216  0.82069946    -0.78300
C291        C  0.37423472  0.17136702  0.82692188     0.82500
N292        N  0.39157771  0.15505513  0.84039308    -0.80000
C293        C  0.24183745  0.69970229  0.83833280     0.79900
N294        N  0.22369055  0.68272100  0.85138539    -0.78400
C295        C  0.23539766  0.65249950  0.85829521     0.82400
N296        N  0.26551985  0.63932847  0.85195882    -0.78300
C297        C  0.28387222  0.65608447  0.83894390     0.82500
N298        N  0.27165614  0.68605470  0.83216660    -0.80000
C299        C  0.22233240  0.27164887  0.59867448     0.79900
N300        N  0.25235752  0.28495902  0.60530674    -0.78400
C301        C  0.26912283  0.26894585  0.61913859     0.82400
N302        N  0.25564984  0.23980469  0.62626760    -0.78300
C303        C  0.22602968  0.22619584  0.61977132     0.82500
N304        N  0.20934902  0.24222155  0.60599878    -0.80000
C305        C  0.70234580  0.11963832  0.60812137     0.79900
N306        N  0.68778152  0.14795422  0.61580956    -0.78400
C307        C  0.70137058  0.16209543  0.63120179     0.82400
N308        N  0.72964770  0.14786357  0.63874526    -0.78300
C309        C  0.74461197  0.11984101  0.63137583     0.82500
N310        N  0.73078087  0.10564465  0.61604996    -0.80000
N311        N  0.60677943  0.50045621  0.74575409    -0.06400
N312        N  0.62480385  0.52934330  0.74666658    -0.58500
N313        N  0.58584786  0.42084208  0.75910047    -0.06100
N314        N  0.59454501  0.39877393  0.77190902    -0.60600
N315        N  0.60864322  0.42084620  0.74591264    -0.05700
N316        N  0.63317970  0.39838327  0.74933918    -0.58500
N317        N  0.58376340  0.49938094  0.75889049    -0.05400
N318        N  0.58577658  0.52716224  0.76906788    -0.61000
C319        C  0.61147779  0.54557989  0.76137414     0.95800
C320        C  0.62379805  0.38461187  0.76551970     0.95600
N321        N  0.48049864  0.41881993  0.74724305    -0.06600
N322        N  0.46025953  0.39176659  0.74958782    -0.59100
N323        N  0.50309048  0.49652945  0.76174699    -0.04700
N324        N  0.49502287  0.51641162  0.77570618    -0.60300
N325        N  0.47905842  0.49780170  0.74914966    -0.06600
N326        N  0.45443976  0.51901269  0.75411478    -0.59400
N327        N  0.50548989  0.41867712  0.75936860    -0.04300
N328        N  0.50283449  0.39185384  0.77017978    -0.60400
Mn329      Mn  0.54467768  0.45884482  0.76027120     1.18400
C330        C  0.47461336  0.37525645  0.76395440     0.97900
C331        C  0.46485784  0.53058919  0.77059334     0.98500
N332        N  0.60393537  0.42029957  0.70333197    -0.06600
N333        N  0.62323374  0.39277981  0.70129050    -0.62900
N334        N  0.58220820  0.49924704  0.69048727    -0.05400
N335        N  0.59036169  0.52123683  0.67743567    -0.63600
N336        N  0.60602162  0.49922836  0.70319522    -0.06100
N337        N  0.63054235  0.52148454  0.69927093    -0.63200
N338        N  0.57925143  0.42068578  0.69103452    -0.05000
N339        N  0.58128997  0.39354326  0.68034458    -0.63900
Mn340      Mn  0.60750606  0.46020776  0.72453358     1.10700
C341        C  0.60882535  0.37640027  0.68689004     0.99100
C342        C  0.62036369  0.53523267  0.68328518     0.99200
N343        N  0.47819286  0.50203270  0.70584029    -0.06100
N344        N  0.45872641  0.52971436  0.70426121    -0.61500
N345        N  0.49822540  0.42343131  0.69115787    -0.05500
N346        N  0.48869689  0.40229492  0.67796373    -0.58200
N347        N  0.47569295  0.42280127  0.70449266    -0.06800
N348        N  0.45068861  0.40081682  0.70083427    -0.61100
N349        N  0.50159643  0.50167137  0.69286307    -0.05800
N350        N  0.49870776  0.52884238  0.68232216    -0.58300
Mn351      Mn  0.47717866  0.46046690  0.72669201     1.20200
Mn352      Mn  0.54027998  0.46122672  0.69081883     1.10100
Cl353      Cl  0.54234439  0.46024259  0.72556774    -0.86200
C354        C  0.47193100  0.54613733  0.68948764     0.96100
C355        C  0.45927628  0.38804323  0.68434365     0.95900
C356        C  0.80873874  0.64889076  0.61425972     0.79900
N357        N  0.82615235  0.63148152  0.60124591    -0.78400
C358        C  0.85663854  0.64380401  0.59470296     0.82400
N359        N  0.86967334  0.67391798  0.60148679    -0.78300
C360        C  0.85207163  0.69152524  0.61451944     0.82500
N361        N  0.82191546  0.67864292  0.62073206    -0.80000
C362        C  0.39443521  0.81323723  0.61506623     0.79900
N363        N  0.40802055  0.78443043  0.62272352    -0.78400
C364        C  0.39337111  0.77018621  0.63774776     0.82400
N365        N  0.36533710  0.78518692  0.64512487    -0.78300
C366        C  0.35137059  0.81383258  0.63782768     0.82500
N367        N  0.36582182  0.82770140  0.62258710    -0.80000
N368        N  0.00323204  0.02010637  0.74996328    -0.06400
N369        N  0.98013131  0.04361947  0.75392439    -0.58500
N370        N  0.08322397  0.99600364  0.76061134    -0.06100
N371        N  0.10993782  0.99988093  0.77144166    -0.60600
N372        N  0.08248071  0.02039935  0.74821416    -0.05700
N373        N  0.10884472  0.04167913  0.75048415    -0.58500
N374        N  0.00474008  0.99686177  0.76290003    -0.05400
N375        N  0.98305249  0.00439311  0.77616115    -0.61000
C376        C  0.96755873  0.03335857  0.77020130     0.95800
C377        C  0.12575352  0.02836318  0.76503083     0.95600
N378        N  0.08256309  0.89204223  0.74845973    -0.06600
N379        N  0.10597989  0.86855535  0.75214200    -0.59100
N380        N  0.00394022  0.91637952  0.76154155    -0.04700
N381        N  0.97627966  0.91465331  0.77182204    -0.60300
N382        N  0.00313758  0.89243326  0.74886533    -0.06600
N383        N  0.97466880  0.87398247  0.75022475    -0.59400
N384        N  0.08240632  0.91577282  0.76122452    -0.04300
N385        N  0.10530717  0.90878452  0.77393367    -0.60400
Mn386      Mn  0.04362474  0.95615459  0.76210192     1.18400
C387        C  0.12017336  0.87961772  0.76795739     0.97900
C388        C  0.95834886  0.88807123  0.76466927     0.98500
N389        N  0.07770974  0.02069243  0.70539179    -0.06600
N390        N  0.10019953  0.04493243  0.70141370    -0.62900
N391        N  0.99844508  0.99424840  0.69474690    -0.05400
N392        N  0.97074682  0.99665450  0.68449716    -0.63600
N393        N  0.99862816  0.01832874  0.70735868    -0.06100
N394        N  0.97090145  0.03769741  0.70588986    -0.63200
N395        N  0.07679863  0.99734026  0.69244780    -0.05000
N396        N  0.09825081  0.00546854  0.67919517    -0.63900
Mn397      Mn  0.04055313  0.02108199  0.72769135     1.10700
C398        C  0.11295822  0.03491020  0.68517222     0.99100
C399        C  0.95377042  0.02379433  0.69154854     0.99200
N400        N  0.00190636  0.89047349  0.70623659    -0.06100
N401        N  0.97918098  0.86609215  0.70252298    -0.61500
N402        N  0.07992346  0.91650659  0.69274283    -0.05500
N403        N  0.10589053  0.91336302  0.68131049    -0.58200
N404        N  0.08129970  0.89259420  0.70540216    -0.06800
N405        N  0.10838305  0.87275923  0.70286523    -0.61100
N406        N  0.00131380  0.91424385  0.69354645    -0.05800
N407        N  0.97862203  0.90644423  0.68082603    -0.58300
Mn408      Mn  0.04233073  0.89058078  0.72728745     1.20200
Mn409      Mn  0.03916450  0.95564178  0.69282857     1.10100
Cl410      Cl  0.04154858  0.95584908  0.72746648    -0.86200
C411        C  0.96463626  0.87666127  0.68674267     0.96100
C412        C  0.12343090  0.88595899  0.68773589     0.95900
C413        C  0.21435427  0.89500176  0.64106003    -0.18100
C414        C  0.24697023  0.88632697  0.63449840    -0.20300
C415        C  0.26720133  0.86215867  0.64372295     0.20400
C416        C  0.25443635  0.84674620  0.65981017    -0.03200
C417        C  0.22149595  0.85544765  0.66641896    -0.06300
C418        C  0.20142004  0.87972792  0.65698812     0.20700
C419        C  0.20871086  0.83992548  0.68246576     0.18800
C420        C  0.22897836  0.81585958  0.69175039    -0.17700
C421        C  0.26159778  0.80723046  0.68519873    -0.20000
C422        C  0.27444976  0.82245423  0.66922822     0.20300
C423        C  0.30665993  0.81321309  0.66231930    -0.33000
C424        C  0.31918667  0.82747345  0.64591859     0.01000
C425        C  0.29957478  0.85255991  0.63691979    -0.24300
C426        C  0.16899102  0.88872547  0.66378836    -0.28900
C427        C  0.15636458  0.87395034  0.67996346     0.06700
C428        C  0.17614184  0.84914509  0.68908296    -0.27600
H429        H  0.19924286  0.91373323  0.63367813     0.11400
H430        H  0.25629995  0.89840674  0.62214071     0.12500
H431        H  0.21962791  0.80374805  0.70409868     0.11600
H432        H  0.27671018  0.78848128  0.69257361     0.10800
H433        H  0.32158001  0.79412169  0.66956295     0.16200
H434        H  0.30893125  0.86379380  0.62433939     0.12100
H435        H  0.15382036  0.90773108  0.65662809     0.15000
H436        H  0.16657919  0.83762965  0.70155293     0.14800
C437        C  0.87268836  0.79049720  0.67941608    -0.18100
C438        C  0.85720234  0.76445218  0.66913370    -0.20300
C439        C  0.86881875  0.75727348  0.65143466     0.20400
C440        C  0.89563512  0.77694586  0.64376881    -0.03200
C441        C  0.91078946  0.80370723  0.65400784    -0.06300
C442        C  0.89972162  0.81000488  0.67205839     0.20700
C443        C  0.93765461  0.82348679  0.64638555     0.18800
C444        C  0.94905925  0.81641128  0.62863313    -0.17700
C445        C  0.93440342  0.78944085  0.61859476    -0.20000
C446        C  0.90782067  0.76937866  0.62606411     0.20300
C447        C  0.89355513  0.74158958  0.61630625    -0.33000
C448        C  0.86689637  0.72180731  0.62397407     0.01000
C449        C  0.85446634  0.73024387  0.64144940    -0.24300
C450        C  0.91666080  0.83489845  0.68261560    -0.28900
C451        C  0.94372838  0.85413021  0.67514049     0.06700
C452        C  0.95345994  0.84913826  0.65690657    -0.27600
H453        H  0.86379007  0.79511981  0.69318924     0.11400
H454        H  0.83653943  0.74948502  0.67515139     0.12500
H455        H  0.96977191  0.83133369  0.62263698     0.11600
H456        H  0.94403722  0.78411590  0.60503876     0.10800
H457        H  0.90316149  0.73535699  0.60284640     0.16200
H458        H  0.83413347  0.71507153  0.64764438     0.12100
H459        H  0.90930745  0.83891515  0.69671038     0.15000
H460        H  0.97473665  0.86382297  0.65127573     0.14800
C461        C  0.37613863  0.67159379  0.67898326    -0.18100
C462        C  0.38686269  0.64024470  0.68629236    -0.20300
C463        C  0.41799167  0.62553101  0.68070738     0.20400
C464        C  0.43846627  0.64260790  0.66757211    -0.03200
C465        C  0.42768568  0.67428580  0.66022929    -0.06300
C466        C  0.39640013  0.68877040  0.66599829     0.20700
C467        C  0.44817080  0.69140431  0.64712316     0.18800
C468        C  0.47930670  0.67668986  0.64153583    -0.17700
C469        C  0.48998067  0.64526088  0.64879243    -0.20000
C470        C  0.46971118  0.62805091  0.66176755     0.20300
C471        C  0.48017252  0.59653293  0.66903359    -0.33000
C472        C  0.46003078  0.57938607  0.68216280     0.01000
C473        C  0.42900187  0.59406839  0.68799763    -0.24300
C474        C  0.38580696  0.72015314  0.65867454    -0.28900
C475        C  0.40591123  0.73743773  0.64554560     0.06700
C476        C  0.43711862  0.72284798  0.63982366    -0.27600
H477        H  0.35198227  0.68244206  0.68350875     0.11400
H478        H  0.37080097  0.62750730  0.69631652     0.12500
H479        H  0.49538493  0.68945901  0.63152922     0.11600
H480        H  0.51410798  0.63438762  0.64424307     0.10800
H481        H  0.50423434  0.58544620  0.66451126     0.16200
H482        H  0.41335127  0.58092043  0.69806674     0.12100
H483        H  0.36155966  0.73090286  0.66314078     0.15000
H484        H  0.45279610  0.73591066  0.62973563     0.14800
C485        C  0.70228835  0.57786699  0.61483724    -0.18100
C486        C  0.67463622  0.56345945  0.62446216    -0.20300
C487        C  0.67128175  0.56897147  0.64329258     0.20400
C488        C  0.69578258  0.58959429  0.65246845    -0.03200
C489        C  0.72336475  0.60441858  0.64274313    -0.06300
C490        C  0.72688054  0.59828092  0.62385011     0.20700
C491        C  0.74770446  0.62498489  0.65201336     0.18800
C492        C  0.74458284  0.63040836  0.67083052    -0.17700
C493        C  0.71759335  0.61529348  0.68050553    -0.20000
C494        C  0.69320687  0.59478764  0.67146515     0.20300
C495        C  0.66699256  0.57842725  0.68122208    -0.33000
C496        C  0.64313989  0.55714327  0.67228447     0.01000
C497        C  0.64467681  0.55324250  0.65325947    -0.24300
C498        C  0.75500003  0.61255891  0.61439877    -0.28900
C499        C  0.77890995  0.63350270  0.62361314     0.06700
C500        C  0.77498437  0.63960337  0.64236963    -0.27600
H501        H  0.70450557  0.57293742  0.60035341     0.11400
H502        H  0.65613781  0.54759065  0.61722145     0.12500
H503        H  0.76321923  0.64608402  0.67809729     0.11600
H504        H  0.71593359  0.61942943  0.69508423     0.10800
H505        H  0.66577194  0.58132472  0.69591287     0.16200
H506        H  0.62652226  0.53635524  0.64641117     0.12100
H507        H  0.75806419  0.60780111  0.59993383     0.15000
H508        H  0.79371729  0.65523865  0.64961687     0.14800
C509        C  0.60344401  0.28616272  0.63992983    -0.18100
C510        C  0.61629018  0.25610332  0.63210857    -0.20300
C511        C  0.64407015  0.23894611  0.64014462     0.20400
C512        C  0.65873281  0.25190675  0.65639473    -0.03200
C513        C  0.64574283  0.28217428  0.66430595    -0.06300
C514        C  0.61814668  0.29948625  0.65592479     0.20700
C515        C  0.66068103  0.29536987  0.68042923     0.18800
C516        C  0.68807315  0.27789733  0.68866029    -0.17700
C517        C  0.70101323  0.24791106  0.68078506    -0.20000
C518        C  0.68667958  0.23492951  0.66459356     0.20300
C519        C  0.70009248  0.20549765  0.65634090    -0.33000
C520        C  0.68599269  0.19265121  0.63995769     0.01000
C521        C  0.65771576  0.20934853  0.63206576    -0.24300
C522        C  0.60601319  0.33006951  0.66354091    -0.28900
C523        C  0.62118994  0.34366226  0.67937558     0.06700
C524        C  0.64826580  0.32604885  0.68787463    -0.27600
H525        H  0.58217948  0.29916148  0.63337760     0.11400
H526        H  0.60470362  0.24645242  0.61966814     0.12500
H527        H  0.69971539  0.28761549  0.70107649     0.11600
H528        H  0.72242947  0.23503334  0.68727090     0.10800
H529        H  0.72178235  0.19280180  0.66267861     0.16200
H530        H  0.64659083  0.19963421  0.61951567     0.12100
H531        H  0.58501997  0.34352124  0.65698362     0.15000
H532        H  0.65986836  0.33634109  0.70017970     0.14800
C533        C  0.86197541  0.11133750  0.68848519    -0.18100
C534        C  0.83319907  0.12508019  0.67970115    -0.20300
C535        C  0.81873806  0.10839234  0.66451060     0.20400
C536        C  0.83325989  0.07755930  0.65812215    -0.03200
C537        C  0.86229032  0.06373175  0.66696026    -0.06300
C538        C  0.87680626  0.08074552  0.68218430     0.20700
C539        C  0.87697882  0.03305822  0.66042818     0.18800
C540        C  0.86248307  0.01633475  0.64529057    -0.17700
C541        C  0.83368196  0.03000129  0.63656451    -0.20000
C542        C  0.81892686  0.06061500  0.64283172     0.20300
C543        C  0.79012285  0.07453515  0.63405726    -0.33000
C544        C  0.77540194  0.10521253  0.64035998     0.01000
C545        C  0.79000813  0.12200209  0.65560066    -0.24300
C546        C  0.90622269  0.06716321  0.69059581    -0.28900
C547        C  0.92137251  0.03701547  0.68382453     0.06700
C548        C  0.90627227  0.01988600  0.66893346    -0.27600
H549        H  0.87276134  0.12475200  0.70012952     0.11400
H550        H  0.82228933  0.14881572  0.68476683     0.12500
H551        H  0.87355419  0.99275208  0.64012914     0.11600
H552        H  0.82301498  0.01667594  0.62486400     0.10800
H553        H  0.77912496  0.06137884  0.62238129     0.16200
H554        H  0.77904982  0.14575678  0.66061966     0.12100
H555        H  0.91770313  0.08040923  0.70211664     0.15000
H556        H  0.91769009  0.99651092  0.66370031     0.14800
C557        C  0.20100367  0.12430897  0.68257586    -0.18100
C558        C  0.21618020  0.15192844  0.67347825    -0.20300
C559        C  0.20715687  0.15912495  0.65538202     0.20400
C560        C  0.18335774  0.13787879  0.64613073    -0.03200
C561        C  0.16849605  0.10966977  0.65520436    -0.06300
C562        C  0.17688979  0.10338190  0.67362476     0.20700
C563        C  0.14436828  0.08851530  0.64607874     0.18800
C564        C  0.13574538  0.09550827  0.62788519    -0.17700
C565        C  0.15024425  0.12381104  0.61893033    -0.20000
C566        C  0.17378325  0.14532502  0.62799517     0.20300
C567        C  0.18764296  0.17437476  0.61935852    -0.33000
C568        C  0.21135497  0.19553277  0.62856471     0.01000
C569        C  0.22115512  0.18758103  0.64649615    -0.24300
C570        C  0.15990684  0.07721789  0.68302456    -0.28900
C571        C  0.13509930  0.05702432  0.67420490     0.06700
C572        C  0.12817908  0.06178017  0.65561085    -0.27600
H573        H  0.20771809  0.11963180  0.69669175     0.11400
H574        H  0.23450531  0.16804116  0.68069684     0.12500
H575        H  0.11724622  0.07952720  0.62071144     0.11600
H576        H  0.14277952  0.12908515  0.60498365     0.10800
H577        H  0.18018232  0.18038760  0.60548771     0.16200
H578        H  0.23919211  0.20400646  0.65374176     0.12100
H579        H  0.16501049  0.07331821  0.69741197     0.15000
H580        H  0.10855046  0.04630991  0.64895563     0.14800
C581        C  0.37017091  0.29850220  0.68207213    -0.18100
C582        C  0.34331613  0.28200454  0.67287781    -0.20300
C583        C  0.33619932  0.29012819  0.65464590     0.20400
C584        C  0.35680318  0.31436040  0.64536896    -0.03200
C585        C  0.38426171  0.33062903  0.65456903    -0.06300
C586        C  0.39047840  0.32310144  0.67310711     0.20700
C587        C  0.40478900  0.35516509  0.64540931     0.18800
C588        C  0.39786574  0.36287958  0.62708183    -0.17700
C589        C  0.37033210  0.34699877  0.61800988    -0.20000
C590        C  0.34941864  0.32298413  0.62708225     0.20300
C591        C  0.32087359  0.30794082  0.61835890    -0.33000
C592        C  0.30006038  0.28410378  0.62767349     0.01000
C593        C  0.30829003  0.27497514  0.64569955    -0.24300
C594        C  0.41612686  0.34113475  0.68253629    -0.28900
C595        C  0.43608387  0.36604958  0.67361470     0.06700
C596        C  0.43104481  0.37237143  0.65495371    -0.27600
H597        H  0.37476117  0.29236827  0.69626736     0.11400
H598        H  0.32768617  0.26335988  0.68013319     0.12500
H599        H  0.41335477  0.38167869  0.61986115     0.11600
H600        H  0.36514708  0.35380574  0.60396173     0.10800
H601        H  0.31479341  0.31483866  0.60441657     0.16200
H602        H  0.29229206  0.25676609  0.65305660     0.12100
H603        H  0.42012897  0.33636539  0.69694375     0.15000
H604        H  0.44623231  0.39199970  0.64816091     0.14800
C605        C  0.37624360  0.56808435  0.83769504    -0.18100
C606        C  0.40245159  0.55103983  0.82822919    -0.20300
C607        C  0.41145267  0.56114484  0.81047156     0.20400
C608        C  0.39427473  0.58911590  0.80233519    -0.03200
C609        C  0.36831936  0.60662798  0.81198580    -0.06300
C610        C  0.35883879  0.59577845  0.82965061     0.20700
C611        C  0.35129734  0.63450407  0.80373450     0.18800
C612        C  0.36026405  0.64473491  0.78603926    -0.17700
C613        C  0.38543930  0.62700438  0.77636424    -0.20000
C614        C  0.40234609  0.59906700  0.78432710     0.20300
C615        C  0.42645246  0.58032908  0.77436011    -0.33000
C616        C  0.44329187  0.55232149  0.78223505     0.01000
C617        C  0.43645355  0.54321766  0.80043377    -0.24300
C618        C  0.33166977  0.61237599  0.83872338    -0.28900
C619        C  0.31436255  0.63999134  0.83040677     0.06700
C620        C  0.32492154  0.65120659  0.81306744    -0.27600
H621        H  0.36939612  0.55941950  0.85125222     0.11400
H622        H  0.41526441  0.52956945  0.83467778     0.12500
H623        H  0.34733680  0.66608783  0.77954400     0.11600
H624        H  0.39146150  0.63494560  0.76257440     0.10800
H625        H  0.43177792  0.58714457  0.76030603     0.16200
H626        H  0.44917277  0.52116174  0.80638275     0.12100
H627        H  0.32378682  0.60360176  0.85210938     0.15000
H628        H  0.31170092  0.67223031  0.80642412     0.14800
C629        C  0.14085187  0.82018865  0.82576521    -0.18100
C630        C  0.15717119  0.79408296  0.83554387    -0.20300
C631        C  0.18468317  0.77600179  0.82780752     0.20400
C632        C  0.19633649  0.78480565  0.81018251    -0.03200
C633        C  0.17942483  0.81062194  0.80016740    -0.06300
C634        C  0.15144988  0.82825381  0.80799076     0.20700
C635        C  0.18971685  0.81790924  0.78210193     0.18800
C636        C  0.21795508  0.80067005  0.77459365    -0.17700
C637        C  0.23520427  0.77560903  0.78467575    -0.20000
C638        C  0.22417575  0.76707755  0.80232480     0.20300
C639        C  0.23982274  0.74038741  0.81200709    -0.33000
C640        C  0.22746776  0.73045221  0.82927370     0.01000
C641        C  0.20015190  0.74871056  0.83718223    -0.24300
C642        C  0.13370407  0.85262866  0.79762701    -0.28900
C643        C  0.14259097  0.85835570  0.77933515     0.06700
C644        C  0.17080657  0.84137630  0.77167788    -0.27600
H645        H  0.11938087  0.83349201  0.83193681     0.11400
H646        H  0.14799990  0.78775114  0.84907814     0.12500
H647        H  0.22635794  0.80617887  0.76081984     0.11600
H648        H  0.25664898  0.76228337  0.77849296     0.10800
H649        H  0.26075902  0.72643362  0.80571278     0.16200
H650        H  0.19061140  0.74138781  0.85051205     0.12100
H651        H  0.11165345  0.86563204  0.80342790     0.15000
H652        H  0.17759530  0.84604908  0.75755965     0.14800
C653        C  0.37523579  0.25259518  0.77555575    -0.18100
C654        C  0.38978253  0.28059571  0.76641117    -0.20300
C655        C  0.41788420  0.29832216  0.77397327     0.20400
C656        C  0.43148332  0.28774163  0.79092083    -0.03200
C657        C  0.41674799  0.25960479  0.80016612    -0.06300
C658        C  0.38857693  0.24195069  0.79239465     0.20700
C659        C  0.43030886  0.24905603  0.81712219     0.18800
C660        C  0.45823947  0.26694649  0.82475339    -0.17700
C661        C  0.47292076  0.29482585  0.81556194    -0.20000
C662        C  0.45977639  0.30529444  0.79864856     0.20300
C663        C  0.47419697  0.33327754  0.78942798    -0.33000
C664        C  0.46036782  0.34435405  0.77273788     0.01000
C665        C  0.43241357  0.32664727  0.76499036    -0.24300
C666        C  0.37446838  0.21367937  0.80148042    -0.28900
C667        C  0.38828581  0.20252250  0.81818738     0.06700
C668        C  0.41598514  0.22055202  0.82602935    -0.27600
H669        H  0.35358679  0.23921028  0.76943948     0.11400
H670        H  0.37905019  0.28839551  0.75343231     0.12500
H671        H  0.46885398  0.25925396  0.83777750     0.11600
H672        H  0.49455365  0.30822068  0.82168587     0.10800
H673        H  0.49579477  0.34688439  0.79547366     0.16200
H674        H  0.42181289  0.33506749  0.75208235     0.12100
H675        H  0.35312036  0.19993407  0.79527736     0.15000
H676        H  0.42658378  0.21226322  0.83896149     0.14800
C677        C  0.20635985  0.12521600  0.77561749    -0.18100
C678        C  0.23445518  0.13932712  0.78494575    -0.20300
C679        C  0.25235966  0.11977541  0.79789027     0.20400
C680        C  0.24178742  0.08584514  0.80166026    -0.03200
C681        C  0.21344879  0.07160861  0.79224901    -0.06300
C682        C  0.19572386  0.09133988  0.77910062     0.20700
C683        C  0.20290913  0.03762909  0.79598090     0.18800
C684        C  0.22061255  0.01821652  0.80906109    -0.17700
C685        C  0.24877142  0.03231615  0.81835613    -0.20000
C686        C  0.25966698  0.06605708  0.81471871     0.20300
C687        C  0.28842889  0.08016131  0.82366694    -0.33000
C688        C  0.29959666  0.11372307  0.81960783     0.01000
C689        C  0.28098583  0.13346673  0.80690918    -0.24300
C690        C  0.16754291  0.07691994  0.76979620    -0.28900
C691        C  0.15672284  0.04321326  0.77367020     0.06700
C692        C  0.17467739  0.02370338  0.78667348    -0.27600
H693        H  0.19299961  0.14077467  0.76565211     0.11400
H694        H  0.24232357  0.16549273  0.78195287     0.12500
H695        H  0.21270361  0.99207744  0.81208280     0.11600
H696        H  0.26212739  0.01676752  0.82832735     0.10800
H697        H  0.30252841  0.06475266  0.83341873     0.16200
H698        H  0.28905913  0.15950386  0.80374148     0.12100
H699        H  0.15365575  0.09209890  0.75985625     0.15000
H700        H  0.16652256  0.99761375  0.78967356     0.14800
C701        C  0.94082332  0.09246202  0.82770291    -0.18100
C702        C  0.92494467  0.11981401  0.83674347    -0.20300
C703        C  0.90038572  0.13999819  0.82776344     0.20400
C704        C  0.89109634  0.13197459  0.80963055    -0.03200
C705        C  0.90761371  0.10488979  0.80039518    -0.06300
C706        C  0.93277284  0.08516476  0.80944630     0.20700
C707        C  0.89988145  0.09842479  0.78189698     0.18800
C708        C  0.87453276  0.11781715  0.77307708    -0.17700
C709        C  0.85755385  0.14408190  0.78236497    -0.20000
C710        C  0.86609962  0.15170890  0.80051129     0.20300
C711        C  0.85081222  0.17940200  0.80949555    -0.33000
C712        C  0.86093414  0.18847790  0.82728552     0.01000
C713        C  0.88554012  0.16851989  0.83641352    -0.24300
C714        C  0.95049865  0.05958651  0.79981911    -0.28900
C715        C  0.94430916  0.05468009  0.78113311     0.06700
C716        C  0.91860817  0.07364675  0.77234203    -0.27600
H717        H  0.96006595  0.07757771  0.83484825     0.11400
H718        H  0.93220300  0.12545855  0.85069205     0.12500
H719        H  0.86820603  0.11300945  0.75891353     0.11600
H720        H  0.83834635  0.15900529  0.77521036     0.10800
H721        H  0.83200077  0.19480016  0.80230852     0.16200
H722        H  0.89318582  0.17527511  0.85017483     0.12100
H723        H  0.97067491  0.04516646  0.80651917     0.15000
H724        H  0.91390819  0.06973522  0.75791335     0.14800
C725        C  0.68349358  0.36378609  0.82343039    -0.18100
C726        C  0.70868909  0.34662054  0.83349992    -0.20300
C727        C  0.72666493  0.31900060  0.82580489     0.20400
C728        C  0.71866003  0.30816670  0.80790035    -0.03200
C729        C  0.69380933  0.32592307  0.79761116    -0.06300
C730        C  0.67617307  0.35386326  0.80543803     0.20700
C731        C  0.68728229  0.31628884  0.77934249     0.18800
C732        C  0.70459327  0.28813491  0.77180209    -0.17700
C733        C  0.72867439  0.27006634  0.78213499    -0.20000
C734        C  0.73621272  0.28023340  0.80005724     0.20300
C735        C  0.76200737  0.26377368  0.80997313    -0.33000
C736        C  0.77157868  0.27561128  0.82739386     0.01000
C737        C  0.75330321  0.30279394  0.83541193    -0.24300
C738        C  0.65211506  0.37187115  0.79498291    -0.28900
C739        C  0.64648475  0.36312401  0.77664927     0.06700
C740        C  0.66405971  0.33540216  0.76885863    -0.27600
H741        H  0.67017714  0.38524638  0.82959988     0.11400
H742        H  0.71439806  0.35520950  0.84722864     0.12500
H743        H  0.69973857  0.28028340  0.75786014     0.11600
H744        H  0.74201208  0.24862382  0.77595781     0.10800
H745        H  0.77597424  0.24291609  0.80361528     0.16200
H746        H  0.76036630  0.31184865  0.84889030     0.12100
H747        H  0.63880006  0.39364801  0.80086409     0.15000
H748        H  0.65960271  0.32879068  0.75468779     0.14800
C749        C  0.60615985  0.63498173  0.80836039    -0.18100
C750        C  0.61521920  0.66740059  0.81500757    -0.20300
C751        C  0.63586414  0.68951149  0.80457586     0.20400
C752        C  0.64700776  0.67915852  0.78710563    -0.03200
C753        C  0.63802223  0.64632880  0.78042781    -0.06300
C754        C  0.61770211  0.62415979  0.79120704     0.20700
C755        C  0.64984819  0.63545655  0.76316403     0.18800
C756        C  0.66982361  0.65796946  0.75254621    -0.17700
C757        C  0.67870829  0.69061425  0.75917188    -0.20000
C758        C  0.66782934  0.70121595  0.77653806     0.20300
C759        C  0.67836839  0.73292810  0.78381304    -0.33000
C760        C  0.66861733  0.74269042  0.80159385     0.01000
C761        C  0.64650861  0.72126237  0.81162680    -0.24300
C762        C  0.60947096  0.59137461  0.78476457    -0.28900
C763        C  0.62146397  0.58011193  0.76775338     0.06700
C764        C  0.64163032  0.60222151  0.75694781    -0.27600
H765        H  0.59045494  0.61818697  0.81674105     0.11400
H766        H  0.60646670  0.67499696  0.82842740     0.12500
H767        H  0.67890758  0.65018498  0.73921623     0.11600
H768        H  0.69459337  0.70733763  0.75084559     0.10800
H769        H  0.69514099  0.74944260  0.77585113     0.16200
H770        H  0.63881030  0.72851312  0.82528776     0.12100
H771        H  0.59385633  0.57444595  0.79313408     0.15000
H772        H  0.65061136  0.59371475  0.74371556     0.14800
C773        C  0.85108492  0.82151837  0.75705790    -0.18100
C774        C  0.81842681  0.81204755  0.76329399    -0.20300
C775        C  0.80551128  0.82583730  0.77957167     0.20400
C776        C  0.82529599  0.84992732  0.78948565    -0.03200
C777        C  0.85805281  0.85969771  0.78312432    -0.06300
C778        C  0.87116580  0.84509029  0.76694951     0.20700
C779        C  0.87785261  0.88372123  0.79308644     0.18800
C780        C  0.86474732  0.89793049  0.80919920    -0.17700
C781        C  0.83241677  0.88791427  0.81562371    -0.20000
C782        C  0.81263120  0.86380614  0.80592602     0.20300
C783        C  0.78071088  0.85283348  0.81258432    -0.33000
C784        C  0.76121467  0.82817772  0.80302096     0.01000
C785        C  0.77350657  0.81533412  0.78632698    -0.24300
C786        C  0.90420180  0.85417475  0.76103149    -0.28900
C787        C  0.92398530  0.87793966  0.77098470     0.06700
C788        C  0.91058197  0.89285453  0.78687106    -0.27600
H789        H  0.86072639  0.81024205  0.74456921     0.11400
H790        H  0.80346198  0.79357229  0.75551950     0.12500
H791        H  0.87968221  0.91647244  0.81694780     0.11600
H792        H  0.82298990  0.89883326  0.82824544     0.10800
H793        H  0.77147031  0.86297659  0.82543191     0.16200
H794        H  0.75862508  0.79645008  0.77877628     0.12100
H795        H  0.91440460  0.84291619  0.74865586     0.15000
H796        H  0.92576110  0.91135732  0.79452907     0.14800
C797        C  0.38979431  0.03121580  0.89238779    -0.18100
C798        C  0.40750014  0.01507670  0.90654085    -0.20300
C799        C  0.43906468  0.02832980  0.91268192     0.20400
C800        C  0.45321103  0.05794117  0.90438433    -0.03200
C801        C  0.43527646  0.07427305  0.89013543    -0.06300
C802        C  0.40335042  0.06089472  0.88418355     0.20700
C803        C  0.44917631  0.10403146  0.88192743     0.18800
C804        C  0.48108790  0.11695297  0.88787687    -0.17700
C805        C  0.49897635  0.10066662  0.90196559    -0.20000
C806        C  0.48519170  0.07126201  0.91035519     0.20300
C807        C  0.50273953  0.05486181  0.92458265    -0.33000
C808        C  0.48847107  0.02561463  0.93288220     0.01000
C809        C  0.45675563  0.01245655  0.92695620    -0.24300
C810        C  0.38536474  0.07750210  0.87021789    -0.28900
C811        C  0.39872318  0.10746163  0.86210824     0.06700
C812        C  0.43082060  0.12043746  0.86799462    -0.27600
H813        H  0.36537443  0.02058019  0.88792047     0.11400
H814        H  0.39644788  0.99226905  0.91272579     0.12500
H815        H  0.49216345  0.13973001  0.88166969     0.11600
H816        H  0.52351892  0.11114864  0.90635026     0.10800
H817        H  0.52742671  0.06464845  0.92921183     0.16200
H818        H  0.44617592  0.98963526  0.93338289     0.12100
H819        H  0.36078087  0.06717123  0.86578899     0.15000
H820        H  0.44156560  0.14339103  0.86179852     0.14800
C821        C  0.60764918  0.80986014  0.88718937    -0.18100
C822        C  0.59524801  0.82428290  0.90337159    -0.20300
C823        C  0.61157836  0.85306377  0.91113164     0.20400
C824        C  0.64110959  0.86707922  0.90269683    -0.03200
C825        C  0.65366785  0.85244999  0.88639361    -0.06300
C826        C  0.63663874  0.82393005  0.87849316     0.20700
C827        C  0.68279287  0.86685850  0.87780432     0.18800
C828        C  0.69944175  0.89534242  0.88568561    -0.17700
C829        C  0.68685042  0.91000989  0.90174287    -0.20000
C830        C  0.65750962  0.89632328  0.91025148     0.20300
C831        C  0.64355960  0.91204932  0.92579078    -0.33000
C832        C  0.61357844  0.89878646  0.93386167     0.01000
C833        C  0.59820618  0.86883592  0.92678808    -0.24300
C834        C  0.64851906  0.81038345  0.86189658    -0.28900
C835        C  0.67722579  0.82501983  0.85306184     0.06700
C836        C  0.69442784  0.85299888  0.86130682    -0.27600
H837        H  0.59429722  0.78793213  0.88135513     0.11400
H838        H  0.57253329  0.81324190  0.90966976     0.12500
H839        H  0.72191743  0.90663246  0.87926697     0.11600
H840        H  0.69979482  0.93236732  0.90737094     0.10800
H841        H  0.65514396  0.93532435  0.93122287     0.16200
H842        H  0.57483822  0.85895197  0.93297611     0.12100
H843        H  0.63514357  0.78872878  0.85578439     0.15000
H844        H  0.71667134  0.86449966  0.85476071     0.14800
C845        C  0.20966244  0.36899261  0.55600677    -0.18100
C846        C  0.18972849  0.38801648  0.54381378    -0.20300
C847        C  0.15614004  0.37740397  0.53949149     0.20400
C848        C  0.14253884  0.34716737  0.54740644    -0.03200
C849        C  0.16271385  0.32790745  0.55962558    -0.06300
C850        C  0.19636137  0.33899625  0.56401397     0.20700
C851        C  0.14912781  0.29771273  0.56752910     0.18800
C852        C  0.11561204  0.28693620  0.56311378    -0.17700
C853        C  0.09558015  0.30604169  0.55101035    -0.20000
C854        C  0.10876838  0.33619109  0.54313251     0.20300
C855        C  0.08888489  0.35548324  0.53098756    -0.33000
C856        C  0.10242270  0.38541773  0.52308540     0.01000
C857        C  0.13592868  0.39637226  0.52734560    -0.24300
C858        C  0.21599236  0.32013372  0.57647927    -0.28900
C859        C  0.20246987  0.29026341  0.58462088     0.06700
C860        C  0.16911657  0.27903461  0.57988327    -0.27600
H861        H  0.23546455  0.37780668  0.55922093     0.11400
H862        H  0.20054258  0.41110743  0.53781035     0.12500
H863        H  0.10483240  0.26379566  0.56908544     0.11600
H864        H  0.06974968  0.29726577  0.54783033     0.10800
H865        H  0.06305652  0.34712080  0.52746101     0.16200
H866        H  0.14621679  0.41942191  0.52102166     0.12100
H867        H  0.24166167  0.32898478  0.57997411     0.15000
H868        H  0.15832300  0.25608599  0.58606275     0.14800
C869        C  0.98203752  0.59922928  0.54773089    -0.18100
C870        C  0.96233593  0.62121736  0.55860679    -0.20300
C871        C  0.92975725  0.61087954  0.56488461     0.20400
C872        C  0.91710371  0.57788979  0.56027010    -0.03200
C873        C  0.93708194  0.55558845  0.54944617    -0.06300
C874        C  0.96959568  0.56644592  0.54302632     0.20700
C875        C  0.92420318  0.52268975  0.54476185     0.18800
C876        C  0.89173746  0.51227898  0.55106965    -0.17700
C877        C  0.87195991  0.53437906  0.56175766    -0.20000
C878        C  0.88435588  0.56722244  0.56634781     0.20300
C879        C  0.86455937  0.58942123  0.57701501    -0.33000
C880        C  0.87704776  0.62217736  0.58201671     0.01000
C881        C  0.90968754  0.63281012  0.57575683    -0.24300
C882        C  0.98856081  0.54470352  0.53158955    -0.28900
C883        C  0.97533000  0.51239294  0.52653348     0.06700
C884        C  0.94353202  0.50122376  0.53339045    -0.27600
H885        H  0.00693030  0.60796106  0.54289619     0.11400
H886        H  0.97250792  0.64640623  0.56202045     0.12500
H887        H  0.88148273  0.48715684  0.54758370     0.11600
H888        H  0.84687242  0.52581090  0.56639054     0.10800
H889        H  0.83953933  0.58073837  0.58169603     0.16200
H890        H  0.91967499  0.65791564  0.57950031     0.12100
H891        H  0.01296463  0.55330475  0.52601938     0.15000
H892        H  0.93330287  0.47644551  0.52920995     0.14800
C893        C  0.13039631  0.63807291  0.89609072    -0.18100
C894        C  0.10798793  0.61688904  0.90603204    -0.20300
C895        C  0.11526113  0.58184446  0.90837827     0.20400
C896        C  0.14534896  0.56799206  0.90056630    -0.03200
C897        C  0.16818496  0.58946162  0.89080046    -0.06300
C898        C  0.16062320  0.62463886  0.88846406     0.20700
C899        C  0.19863488  0.57567510  0.88341870     0.18800
C900        C  0.20589724  0.54065740  0.88568979    -0.17700
C901        C  0.18321131  0.51935984  0.89525328    -0.20000
C902        C  0.15299993  0.53278010  0.90279505     0.20300
C903        C  0.13098008  0.51185393  0.91308755    -0.33000
C904        C  0.10187815  0.52581254  0.92150290     0.01000
C905        C  0.09370602  0.56061021  0.91889231    -0.24300
C906        C  0.18320673  0.64556583  0.87835207    -0.28900
C907        C  0.21338124  0.63176383  0.87067148     0.06700
C908        C  0.22111972  0.59692594  0.87362943    -0.27600
H909        H  0.12415578  0.66500850  0.89443537     0.11400
H910        H  0.08503693  0.62795140  0.91195353     0.12500
H911        H  0.22914704  0.52970971  0.88004145     0.11600
H912        H  0.18947865  0.49243266  0.89691093     0.10800
H913        H  0.13743934  0.48514148  0.91547275     0.16200
H914        H  0.07145977  0.57132922  0.92570469     0.12100
H915        H  0.17699930  0.67240588  0.87623415     0.15000
H916        H  0.24414970  0.58587718  0.86777735     0.14800
C917        C  0.86468481  0.36869330  0.89568549    -0.18100
C918        C  0.88477450  0.38959398  0.90704958    -0.20300
C919        C  0.92018831  0.38369232  0.90888905     0.20400
C920        C  0.93568657  0.35689072  0.89888567    -0.03200
C921        C  0.91533006  0.33557991  0.88755532    -0.06300
C922        C  0.87962952  0.34139659  0.88606011     0.20700
C923        C  0.93060064  0.30814917  0.87797471     0.18800
C924        C  0.96621827  0.30288645  0.87939276    -0.17700
C925        C  0.98644000  0.32412243  0.89053824    -0.20000
C926        C  0.97137004  0.35089505  0.90051502     0.20300
C927        C  0.99111979  0.37120812  0.91244577    -0.33000
C928        C  0.97550394  0.39704387  0.92287549     0.01000
C929        C  0.94022399  0.40355158  0.92087470    -0.24300
C930        C  0.85941914  0.31964860  0.87511644    -0.28900
C931        C  0.87427734  0.29181791  0.86577507     0.06700
C932        C  0.90997261  0.28633975  0.86725303    -0.27600
H933        H  0.83733897  0.37360198  0.89461443     0.11400
H934        H  0.87253112  0.41015970  0.91455955     0.12500
H935        H  0.97839968  0.28211119  0.87201646     0.11600
H936        H  0.01380120  0.31926996  0.89157054     0.10800
H937        H  0.01838752  0.36631745  0.91409232     0.16200
H938        H  0.92837392  0.42357491  0.92897500     0.12100
H939        H  0.83200040  0.32422023  0.87403820     0.15000
H940        H  0.92182481  0.26531068  0.85991625     0.14800
C941        C  0.69245724  0.02189809  0.56506253    -0.18100
C942        C  0.67601483  0.00535753  0.55049216    -0.20300
C943        C  0.64910994  0.02151558  0.54110657     0.20400
C944        C  0.63891111  0.05488963  0.54633238    -0.03200
C945        C  0.65534907  0.07148308  0.56116987    -0.06300
C946        C  0.68214486  0.05481265  0.57060804     0.20700
C947        C  0.64467603  0.10450150  0.56669479     0.18800
C948        C  0.61816107  0.12092324  0.55708306    -0.17700
C949        C  0.60204076  0.10460450  0.54230407    -0.20000
C950        C  0.61201983  0.07148864  0.53689373     0.20300
C951        C  0.59537756  0.05448740  0.52238685    -0.33000
C952        C  0.60509644  0.02102316  0.51737946     0.01000
C953        C  0.63201445  0.00475872  0.52672203    -0.24300
C954        C  0.69781786  0.07103224  0.58560290    -0.28900
C955        C  0.68681896  0.10360888  0.59155970     0.06700
C956        C  0.66036629  0.12028875  0.58186060    -0.27600
H957        H  0.71303150  0.00875577  0.57213352     0.11400
H958        H  0.68424129  0.97980548  0.54662157     0.12500
H959        H  0.60970665  0.14633396  0.56107747     0.11600
H960        H  0.58151836  0.11777724  0.53520818     0.10800
H961        H  0.57451838  0.06691669  0.51517067     0.16200
H962        H  0.63940424  0.97894154  0.52282086     0.12100
H963        H  0.71812390  0.05784463  0.59287470     0.15000
H964        H  0.65177120  0.14548212  0.58616418     0.14800
C965        C  0.49356432  0.82679272  0.57332584    -0.18100
C966        C  0.50800976  0.83976395  0.55726255    -0.20300
C967        C  0.48793804  0.85882576  0.54503669     0.20400
C968        C  0.45293295  0.86482144  0.54899285    -0.03200
C969        C  0.43853468  0.85227176  0.56537076    -0.06300
C970        C  0.45892103  0.83304448  0.57754513     0.20700
C971        C  0.40385147  0.85924284  0.56962811     0.18800
C972        C  0.38373394  0.87809505  0.55732034    -0.17700
C973        C  0.39787798  0.89019393  0.54099450    -0.20000
C974        C  0.43247302  0.88392849  0.53676365     0.20300
C975        C  0.44725320  0.89734058  0.52082327    -0.33000
C976        C  0.48230510  0.89238604  0.51718891     0.01000
C977        C  0.50242759  0.87279059  0.52917495    -0.24300
C978        C  0.44434481  0.82049583  0.59374041    -0.28900
C979        C  0.40982509  0.82750704  0.59816452     0.06700
C980        C  0.38985843  0.84718295  0.58608178    -0.27600
H981        H  0.50958683  0.81212290  0.58253842     0.11400
H982        H  0.53492707  0.83498873  0.55443245     0.12500
H983        H  0.35703338  0.88355986  0.56034264     0.11600
H984        H  0.38185387  0.90484812  0.53177669     0.10800
H985        H  0.43202228  0.91294144  0.51164959     0.16200
H986        H  0.52960744  0.86944874  0.52638483     0.12100
H987        H  0.46000304  0.80550338  0.60299566     0.15000
H988        H  0.36318249  0.85247996  0.58928542     0.14800
C989        C  0.36515387  0.05126152  0.05144014    -0.18100
C990        C  0.38604957  0.02999779  0.04077527    -0.20300
C991        C  0.42168861  0.03584508  0.03976461     0.20400
C992        C  0.43644755  0.06324925  0.04975590    -0.03200
C993        C  0.41529558  0.08485318  0.06043956    -0.06300
C994        C  0.37946711  0.07887307  0.06125109     0.20700
C995        C  0.42998579  0.11258236  0.07017141     0.18800
C996        C  0.46567446  0.11820368  0.06934322    -0.17700
C997        C  0.48660042  0.09686653  0.05876282    -0.20000
C998        C  0.47225622  0.06945140  0.04883327     0.20300
C999        C  0.49293353  0.04866619  0.03767049    -0.33000
C1000       C  0.47825536  0.02190947  0.02734910     0.01000
C1001       C  0.44270496  0.01534798  0.02861591    -0.24300
C1002       C  0.35860276  0.10058746  0.07182733    -0.28900
C1003       C  0.37300031  0.12846374  0.08153525     0.06700
C1004       C  0.40879809  0.13422826  0.08055117    -0.27600
H1005       H  0.33771751  0.04622987  0.05191744     0.11400
H1006       H  0.37427485  0.00908842  0.03320745     0.12500
H1007       H  0.47740859  0.13928267  0.07679790     0.11600
H1008       H  0.51401336  0.10199750  0.05822818     0.10800
H1009       H  0.52025557  0.05398124  0.03647308     0.16200
H1010       H  0.43137657  0.99495963  0.02046435     0.12100
H1011       H  0.33112672  0.09578387  0.07246328     0.15000
H1012       H  0.42036438  0.15529846  0.08809417     0.14800
C1013       C  0.43649734  0.32963518  0.12377471    -0.18100
C1014       C  0.42137586  0.30250621  0.11399486    -0.20300
C1015       C  0.39849504  0.27963174  0.12259305     0.20400
C1016       C  0.39051833  0.28448979  0.14120148    -0.03200
C1017       C  0.40624296  0.31141571  0.15113890    -0.06300
C1018       C  0.42935593  0.33411281  0.14238407     0.20700
C1019       C  0.39950868  0.31502300  0.16995667     0.18800
C1020       C  0.37633633  0.29253297  0.17853055    -0.17700
C1021       C  0.36019903  0.26637507  0.16860858    -0.20000
C1022       C  0.36735382  0.26199598  0.15001972     0.20300
C1023       C  0.35217807  0.23505353  0.14022608    -0.33000
C1024       C  0.36053956  0.22937042  0.12183734     0.01000
C1025       C  0.38378613  0.25173401  0.11305543    -0.24300
C1026       C  0.44581446  0.36003455  0.15256506    -0.28900
C1027       C  0.44038177  0.36253613  0.17146506     0.06700
C1028       C  0.41688442  0.34032982  0.18000880    -0.27600
H1029       H  0.45427441  0.34675026  0.11685554     0.11400
H1030       H  0.42774405  0.29929646  0.09972594     0.12500
H1031       H  0.37089687  0.29500297  0.19295252     0.11600
H1032       H  0.34251482  0.24919651  0.17555087     0.10800
H1033       H  0.33460855  0.21769568  0.14714953     0.16200
H1034       H  0.39021348  0.24751768  0.09885911     0.12100
H1035       H  0.46434220  0.37689708  0.14601230     0.15000
H1036       H  0.41276257  0.34228002  0.19459087     0.14800
C1037       C  0.08811515  0.31591464  0.39761713    -0.18100
C1038       C  0.10175617  0.30366336  0.38124549    -0.20300
C1039       C  0.12825789  0.32173124  0.37240303     0.20400
C1040       C  0.14186661  0.35190326  0.38037301    -0.03200
C1041       C  0.12817148  0.36423504  0.39689068    -0.06300
C1042       C  0.10079020  0.34640692  0.40539866     0.20700
C1043       C  0.14117097  0.39495753  0.40458896     0.18800
C1044       C  0.16838230  0.41243898  0.39605464    -0.17700
C1045       C  0.18201131  0.40014596  0.37969882    -0.20000
C1046       C  0.16860712  0.37019898  0.37163736     0.20300
C1047       C  0.18116153  0.35851153  0.35487250    -0.33000
C1048       C  0.16732450  0.32876129  0.34665825     0.01000
C1049       C  0.14103741  0.31039076  0.35561363    -0.24300
C1050       C  0.08584377  0.36006060  0.42117487    -0.28900
C1051       C  0.09787621  0.39131339  0.42834983     0.06700
C1052       C  0.12591921  0.40826544  0.42032798    -0.27600
H1053       H  0.06724197  0.30186161  0.40402659     0.11400
H1054       H  0.09121386  0.28031974  0.37535255     0.12500
H1055       H  0.17871956  0.43594904  0.40186408     0.11600
H1056       H  0.20269534  0.41435196  0.37321009     0.10800
H1057       H  0.20153514  0.37283445  0.34817241     0.16200
H1058       H  0.13036452  0.28728354  0.34951760     0.12100
H1059       H  0.06407432  0.34723888  0.42749499     0.15000
H1060       H  0.13494537  0.43242970  0.42601849     0.14800
C1061       C  0.32145920  0.39952942  0.30972413    -0.18100
C1062       C  0.35382863  0.41010022  0.30355650    -0.20300
C1063       C  0.36807976  0.39543461  0.28782912     0.20400
C1064       C  0.34928850  0.37052212  0.27793528    -0.03200
C1065       C  0.31665758  0.35995940  0.28412005    -0.06300
C1066       C  0.30287969  0.37420274  0.30022589     0.20700
C1067       C  0.29820542  0.33457113  0.27441656     0.18800
C1068       C  0.31202438  0.32059858  0.25840086    -0.17700
C1069       C  0.34440182  0.33108410  0.25225782    -0.20000
C1070       C  0.36338232  0.35564740  0.26206426     0.20300
C1071       C  0.39641328  0.36522581  0.25643166    -0.33000
C1072       C  0.41541225  0.38951617  0.26643610     0.01000
C1073       C  0.40100629  0.40485413  0.28196792    -0.24300
C1074       C  0.27120150  0.36221953  0.30680303    -0.28900
C1075       C  0.25327606  0.33603372  0.29753023     0.06700
C1076       C  0.26663951  0.32291605  0.28113298    -0.27600
H1077       H  0.31116830  0.41080993  0.32206168     0.11400
H1078       H  0.36792342  0.42939696  0.31122584     0.12500
H1079       H  0.29801047  0.30117970  0.25077683     0.11600
H1080       H  0.35479754  0.31964126  0.23998394     0.10800
H1081       H  0.40735393  0.35368270  0.24430955     0.16200
H1082       H  0.41557320  0.42381884  0.28963929     0.12100
H1083       H  0.26105625  0.37260379  0.31940083     0.15000
H1084       H  0.25295268  0.30290525  0.27376731     0.14800
C1085       C  0.61753375  0.11480383  0.41194385    -0.18100
C1086       C  0.63766261  0.13580216  0.40065894    -0.20300
C1087       C  0.66216351  0.12132110  0.38893676     0.20400
C1088       C  0.66678008  0.08531594  0.38882625     0.06000
C1089       C  0.64629617  0.06409356  0.40010948    -0.06300
C1090       C  0.62145168  0.07895133  0.41164934     0.20700
C1091       C  0.65067681  0.02803898  0.39982864     0.18800
C1092       C  0.67565878  0.01361490  0.38839894    -0.17700
C1093       C  0.69595302  0.03463938  0.37723608    -0.20000
C1094       C  0.69160415  0.07045052  0.37730380     0.20300
C1095       C  0.71124004  0.09154204  0.36579598    -0.33000
C1096       C  0.70607589  0.12736132  0.36533284     0.01000
C1097       C  0.68170088  0.14210380  0.37711582    -0.24300
C1098       C  0.60128185  0.05771871  0.42284459    -0.28900
C1099       C  0.60581603  0.02188319  0.42276161     0.06700
C1100       C  0.63032778  0.00713388  0.41115387    -0.27600
H1101       H  0.59874720  0.12660721  0.42083997     0.11400
H1102       H  0.63390311  0.16337626  0.40101607     0.12500
H1103       H  0.67946622  0.98604570  0.38806550     0.11600
H1104       H  0.71493232  0.02285039  0.36844962     0.10800
H1105       H  0.72981000  0.07980036  0.35674046     0.16200
H1106       H  0.67770682  0.16966478  0.37696343     0.12100
H1107       H  0.58265223  0.06900257  0.43203953     0.15000
H1108       H  0.63412711  0.97954027  0.41136195     0.14800
C1109       C  0.71689114  0.27233517  0.27911368    -0.18100
C1110       C  0.70095814  0.29922416  0.26988123    -0.20300
C1111       C  0.67603965  0.31915685  0.27865519     0.20400
C1112       C  0.66753753  0.31246415  0.29703967    -0.03200
C1113       C  0.68320905  0.28489515  0.30626799    -0.06300
C1114       C  0.70784679  0.26478277  0.29717966     0.20700
C1115       C  0.67362035  0.27691130  0.32436511     0.18800
C1116       C  0.64912282  0.29740399  0.33321193    -0.17700
C1117       C  0.63384660  0.32508789  0.32412219    -0.20000
C1118       C  0.64260136  0.33258269  0.30598197     0.20300
C1119       C  0.62592568  0.35886380  0.29635454    -0.33000
C1120       C  0.63311542  0.36419511  0.27780182     0.01000
C1121       C  0.65852764  0.34477297  0.26913292    -0.24300
C1122       C  0.72256400  0.23689689  0.30611035    -0.28900
C1123       C  0.71269339  0.22799773  0.32396526     0.06700
C1124       C  0.68826520  0.24824924  0.33309971    -0.27600
H1125       H  0.73584050  0.25701439  0.27200640     0.11400
H1126       H  0.70778603  0.30413441  0.25580247     0.12500
H1127       H  0.64150357  0.29180394  0.34709938     0.11600
H1128       H  0.61468428  0.34023073  0.33116927     0.10800
H1129       H  0.60584919  0.37362013  0.30292281     0.16200
H1130       H  0.66388036  0.34896502  0.25479544     0.12100
H1131       H  0.74111890  0.22143172  0.29879351     0.15000
H1132       H  0.68063009  0.24167473  0.34687187     0.14800
C1133       C  0.17890968  0.50804928  0.05005172    -0.18100
C1134       C  0.19615526  0.52661888  0.06361988    -0.20300
C1135       C  0.18854009  0.56139664  0.06662249     0.20400
C1136       C  0.16379595  0.57785933  0.05564940    -0.03200
C1137       C  0.14655863  0.55920214  0.04189007    -0.06300
C1138       C  0.15386304  0.52400238  0.03924634     0.20700
C1139       C  0.12166655  0.57564175  0.03096834     0.18800
C1140       C  0.11465958  0.61061182  0.03368836    -0.17700
C1141       C  0.13157630  0.62903623  0.04742749    -0.20000
C1142       C  0.15589563  0.61281753  0.05859217     0.20300
C1143       C  0.17217216  0.63083254  0.07276293    -0.33000
C1144       C  0.19659038  0.61447759  0.08386523     0.01000
C1145       C  0.20492301  0.57986478  0.08055908    -0.24300
C1146       C  0.13567807  0.50533905  0.02599617    -0.28900
C1147       C  0.11057703  0.52155370  0.01535919     0.06700
C1148       C  0.10391822  0.55668394  0.01769356    -0.27600
H1149       H  0.18494728  0.48112931  0.04811479     0.11400
H1150       H  0.21519403  0.51367416  0.07190331     0.12500
H1151       H  0.09576650  0.62360915  0.02533690     0.11600
H1152       H  0.12541903  0.65591234  0.04942423     0.10800
H1153       H  0.16588745  0.65759214  0.07511892     0.16200
H1154       H  0.22364977  0.56700720  0.08909205     0.12100
H1155       H  0.14083993  0.47824058  0.02394905     0.15000
H1156       H  0.08460625  0.56899552  0.00929537     0.14800
C1157       C  0.34155119  0.54386168  0.12847816    -0.18100
C1158       C  0.36940270  0.52952549  0.13772398    -0.20300
C1159       C  0.38657167  0.54831788  0.15132296     0.20400
C1160       C  0.37577760  0.58189814  0.15564696    -0.03200
C1161       C  0.34766829  0.59632391  0.14634200    -0.06300
C1162       C  0.33044385  0.57714752  0.13273677     0.20700
C1163       C  0.33656147  0.62973329  0.15080624     0.18800
C1164       C  0.35391645  0.64860968  0.16431965    -0.17700
C1165       C  0.38190092  0.63432948  0.17351874    -0.20000
C1166       C  0.39288530  0.60095033  0.16935932     0.20300
C1167       C  0.42059639  0.58623063  0.17868742    -0.33000
C1168       C  0.43139757  0.55284237  0.17437970     0.01000
C1169       C  0.41432234  0.53406360  0.16069780    -0.24300
C1170       C  0.30200178  0.59130792  0.12386335    -0.28900
C1171       C  0.29021687  0.62420979  0.12858384     0.06700
C1172       C  0.30793189  0.64345490  0.14189868    -0.27600
H1173       H  0.32854167  0.52882592  0.11808759     0.11400
H1174       H  0.37745053  0.50369455  0.13428112     0.12500
H1175       H  0.34568948  0.67433268  0.16786400     0.11600
H1176       H  0.39481785  0.64930695  0.18396337     0.10800
H1177       H  0.43386068  0.60079644  0.18918382     0.16200
H1178       H  0.42254743  0.50822211  0.15736059     0.12100
H1179       H  0.28851141  0.57626906  0.11363783     0.15000
H1180       H  0.29919100  0.66896781  0.14554725     0.14800
C1181       C  0.20175145  0.07644508  0.10948786    -0.18100
C1182       C  0.17391232  0.06049153  0.11825854    -0.20300
C1183       C  0.16424728  0.07051606  0.13590923     0.20400
C1184       C  0.18231355  0.09752530  0.14461303    -0.03200
C1185       C  0.21007943  0.11394475  0.13565328    -0.06300
C1186       C  0.22026436  0.10293692  0.11813257     0.20700
C1187       C  0.22833390  0.14059751  0.14449083     0.18800
C1188       C  0.21854320  0.15088526  0.16206963    -0.17700
C1189       C  0.19149591  0.13422096  0.17106482    -0.20000
C1190       C  0.17351420  0.10726726  0.16254794     0.20300
C1191       C  0.14791059  0.08893469  0.17193351    -0.33000
C1192       C  0.13048312  0.06145457  0.16353650     0.01000
C1193       C  0.13792238  0.05304463  0.14533005    -0.24300
C1194       C  0.24933939  0.11790833  0.10982077    -0.28900
C1195       C  0.26808463  0.14404814  0.11872892     0.06700
C1196       C  0.25678089  0.15575950  0.13588135    -0.27600
H1197       H  0.20911220  0.06771033  0.09602819     0.11400
H1198       H  0.16042242  0.03975544  0.11138619     0.12500
H1199       H  0.23233415  0.17131526  0.16903845     0.11600
H1200       H  0.18499444  0.14206022  0.18480521     0.10800
H1201       H  0.14225573  0.09527559  0.18600867     0.16200
H1202       H  0.12488479  0.03144379  0.13895639     0.12100
H1203       H  0.25767623  0.10886267  0.09657402     0.15000
H1204       H  0.27102776  0.17574287  0.14297009     0.14800
C1205       C  0.19577266  0.17959789  0.26259250    -0.18100
C1206       C  0.18479712  0.14822177  0.25527755    -0.20300
C1207       C  0.15300831  0.13402561  0.26041272     0.20400
C1208       C  0.13184014  0.15186968  0.27284919    -0.03200
C1209       C  0.14291955  0.18348343  0.28023633    -0.06300
C1210       C  0.17512112  0.19722892  0.27514834     0.20700
C1211       C  0.12205076  0.20101151  0.29293316     0.18800
C1212       C  0.08994318  0.18715851  0.29777728    -0.17700
C1213       C  0.07891277  0.15582460  0.29042461    -0.20000
C1214       C  0.09985605  0.13785851  0.27814760     0.20300
C1215       C  0.08961908  0.10583883  0.27132291    -0.33000
C1216       C  0.11085279  0.08763396  0.25923864     0.01000
C1217       C  0.14225583  0.10205137  0.25358764    -0.24300
C1218       C  0.18640677  0.22809833  0.28291738    -0.28900
C1219       C  0.16618532  0.24534309  0.29591108     0.06700
C1220       C  0.13388540  0.23178923  0.30075346    -0.27600
H1221       H  0.22057686  0.18992505  0.25856074     0.11400
H1222       H  0.20131524  0.13490234  0.24574048     0.12500
H1223       H  0.07352725  0.20036746  0.30740603     0.11600
H1224       H  0.05417769  0.14542089  0.29451842     0.10800
H1225       H  0.06515933  0.09495356  0.27555949     0.16200
H1226       H  0.15861926  0.08808257  0.24422609     0.12100
H1227       H  0.21143574  0.23822711  0.27911964     0.15000
H1228       H  0.11806989  0.24504858  0.31065483     0.14800
C1229       C  0.86961224  0.07585644  0.32632825    -0.18100
C1230       C  0.89654110  0.06136665  0.31638162    -0.20300
C1231       C  0.90144422  0.07004056  0.29801076     0.20400
C1232       C  0.87928126  0.09382972  0.28957660    -0.03200
C1233       C  0.85250540  0.10891833  0.29971004    -0.06300
C1234       C  0.84742087  0.09957723  0.31812564     0.20700
C1235       C  0.83051090  0.13289056  0.29133707     0.18800
C1236       C  0.83529678  0.14145519  0.27292346    -0.17700
C1237       C  0.86137517  0.12590192  0.26275969    -0.20000
C1238       C  0.88336668  0.10190896  0.27092592     0.20300
C1239       C  0.90870208  0.08505274  0.26069929    -0.33000
C1240       C  0.93052461  0.06112539  0.26906867     0.01000
C1241       C  0.92740867  0.05444048  0.28777913    -0.24300
C1242       C  0.82009165  0.11389464  0.32796852    -0.28900
C1243       C  0.79827875  0.13796903  0.31973888     0.06700
C1244       C  0.80383631  0.14753664  0.30146041    -0.27600
H1245       H  0.86608488  0.06843016  0.34043396     0.11400
H1246       H  0.91323930  0.04295852  0.32298916     0.12500
H1247       H  0.81855296  0.15982708  0.26631373     0.11600
H1248       H  0.86420039  0.13246652  0.24848839     0.10800
H1249       H  0.91109030  0.09000630  0.24621178     0.16200
H1250       H  0.94388854  0.03549205  0.29413352     0.12100
H1251       H  0.81597224  0.10655712  0.34205284     0.15000
H1252       H  0.78685924  0.16582805  0.29493797     0.14800
C1253       C  0.11920014  0.76276883  0.12474823    -0.18100
C1254       C  0.10378268  0.79073020  0.13341823    -0.20300
C1255       C  0.11879288  0.80522893  0.14905808     0.20400
C1256       C  0.14937936  0.79127672  0.15618317    -0.03200
C1257       C  0.16496356  0.76318349  0.14740906    -0.06300
C1258       C  0.14986933  0.74893332  0.13157772     0.20700
C1259       C  0.19577794  0.74955410  0.15440844     0.18800
C1260       C  0.21052138  0.76372476  0.17020080    -0.17700
C1261       C  0.19502429  0.79153555  0.17892812    -0.20000
C1262       C  0.16463292  0.80564023  0.17195223     0.20300
C1263       C  0.14956562  0.83421447  0.18028472    -0.33000
C1264       C  0.11961782  0.84868135  0.17297351     0.01000
C1265       C  0.10406799  0.83378556  0.15753371    -0.24300
C1266       C  0.16574205  0.72116640  0.12284276    -0.28900
C1267       C  0.19657835  0.70756023  0.12970707     0.06700
C1268       C  0.21138671  0.72199036  0.14550330    -0.27600
H1269       H  0.10724442  0.75209013  0.11264201     0.11400
H1270       H  0.08024191  0.80116882  0.12781969     0.12500
H1271       H  0.23414077  0.75338804  0.17575810     0.11600
H1272       H  0.20697338  0.80220788  0.19103916     0.10800
H1273       H  0.16147391  0.84553200  0.19225136     0.16200
H1274       H  0.08079491  0.84476162  0.15189300     0.12100
H1275       H  0.15407873  0.71022038  0.11071764     0.15000
H1276       H  0.23507547  0.71169879  0.15101298     0.14800
C1277       C  0.99217976  0.32919984  0.05248716    -0.18100
C1278       C  0.97277122  0.31154830  0.06554934    -0.20300
C1279       C  0.93799007  0.31958469  0.06828604     0.20400
C1280       C  0.92260127  0.34580346  0.05788265    -0.03200
C1281       C  0.94208213  0.36337205  0.04455883    -0.06300
C1282       C  0.97704349  0.35498097  0.04184483     0.20700
C1283       C  0.92651504  0.38915130  0.03388129     0.18800
C1284       C  0.89188036  0.39751621  0.03683073    -0.17700
C1285       C  0.87268739  0.38035936  0.05018425    -0.20000
C1286       C  0.88773883  0.35437471  0.06073163     0.20300
C1287       C  0.86856827  0.33677700  0.07403982    -0.33000
C1288       C  0.88368760  0.31033801  0.08431234     0.01000
C1289       C  0.91839025  0.30186926  0.08127419    -0.24300
C1290       C  0.99609776  0.37229590  0.02841872    -0.28900
C1291       C  0.98045114  0.39744681  0.01755581     0.06700
C1292       C  0.94580100  0.40591335  0.02036843    -0.27600
H1293       H  0.01896777  0.32249229  0.05060712     0.11400
H1294       H  0.98497010  0.29156592  0.07350996     0.12500
H1295       H  0.87960391  0.41731355  0.02877910     0.11600
H1296       H  0.84599053  0.38728883  0.05219039     0.10800
H1297       H  0.84183830  0.34340741  0.07626298     0.16200
H1298       H  0.93042960  0.28178324  0.08924146     0.12100
H1299       H  0.02290792  0.36597334  0.02619120     0.15000
H1300       H  0.93398141  0.42551469  0.01197622     0.14800
C1301       C  0.86127187  0.16228981  0.16902994    -0.18100
C1302       C  0.87497323  0.13337402  0.17753772    -0.20300
C1303       C  0.90099657  0.11448005  0.16900945     0.20400
C1304       C  0.91348931  0.12486328  0.15177376    -0.03200
C1305       C  0.89968960  0.15401357  0.14320319    -0.06300
C1306       C  0.87342832  0.17266548  0.15189076     0.20700
C1307       C  0.91229346  0.16460170  0.12602732     0.18800
C1308       C  0.93851264  0.14581160  0.11756729    -0.17700
C1309       C  0.95221225  0.11681515  0.12607203    -0.20000
C1310       C  0.93988741  0.10624188  0.14315370     0.20300
C1311       C  0.95366114  0.07750228  0.15183879    -0.33000
C1312       C  0.94136443  0.06714730  0.16899548     0.01000
C1313       C  0.91493133  0.08553784  0.17747629    -0.24300
C1314       C  0.85992311  0.20161238  0.14339084    -0.28900
C1315       C  0.87250096  0.21260935  0.12637669     0.06700
C1316       C  0.89864027  0.19394373  0.11771755    -0.27600
H1317       H  0.84119267  0.17657866  0.17586504     0.11400
H1318       H  0.86525686  0.12581511  0.19078864     0.12500
H1319       H  0.94848299  0.15359430  0.10440698     0.11600
H1320       H  0.97252225  0.10271698  0.11931994     0.10800
H1321       H  0.97407330  0.06326184  0.14524271     0.16200
H1322       H  0.90555751  0.07763289  0.19074952     0.12100
H1323       H  0.83995961  0.21595543  0.15029785     0.15000
H1324       H  0.90843025  0.20228910  0.10460743     0.14800
C1325       C  0.70319902  0.29628151  0.17784993    -0.18100
C1326       C  0.73134673  0.28256021  0.16855397    -0.20300
C1327       C  0.74669836  0.30079123  0.15415393     0.20400
C1328       C  0.73405613  0.33331373  0.14921283    -0.03200
C1329       C  0.70566257  0.34710554  0.15855432    -0.06300
C1330       C  0.69002272  0.32843626  0.17288933     0.20700
C1331       C  0.69275645  0.37944878  0.15342723     0.18800
C1332       C  0.70856835  0.39799722  0.13930934    -0.17700
C1333       C  0.73681828  0.38437405  0.13010497    -0.20000
C1334       C  0.74954972  0.35193433  0.13482182     0.20300
C1335       C  0.77727704  0.33769252  0.12528836    -0.33000
C1336       C  0.78963174  0.30502752  0.12993259     0.01000
C1337       C  0.77429483  0.28690128  0.14450602    -0.24300
C1338       C  0.66142164  0.34221761  0.18191563    -0.28900
C1339       C  0.64833301  0.37427033  0.17666799     0.06700
C1340       C  0.66415244  0.39269145  0.16244964    -0.27600
H1341       H  0.69161666  0.28166523  0.18883740     0.11400
H1342       H  0.74096522  0.25757028  0.17254194     0.12500
H1343       H  0.69896332  0.42298938  0.13532139     0.11600
H1344       H  0.74850693  0.39907329  0.11918217     0.10800
H1345       H  0.78908855  0.35197385  0.11424075     0.16200
H1346       H  0.78368636  0.26176686  0.14839897     0.12100
H1347       H  0.64922066  0.32794593  0.19285185     0.15000
H1348       H  0.65425065  0.41753402  0.15837558     0.14800
C1349       C  0.39231972  0.90067407  0.39875784    -0.18100
C1350       C  0.37018601  0.88126033  0.38767287    -0.20300
C1351       C  0.37921782  0.84794120  0.38215036     0.20400
C1352       C  0.41082670  0.83399041  0.38795649    -0.03200
C1353       C  0.43328995  0.85366889  0.39907889    -0.06300
C1354       C  0.42394819  0.88717501  0.40451866     0.20700
C1355       C  0.46496977  0.83973609  0.40483440     0.18800
C1356       C  0.47380269  0.80626381  0.39948156    -0.17700
C1357       C  0.45158505  0.78681889  0.38846320    -0.20000
C1358       C  0.42011329  0.80048032  0.38256751     0.20300
C1359       C  0.39815932  0.78148492  0.37107813    -0.33000
C1360       C  0.36707179  0.79561071  0.36466060     0.01000
C1361       C  0.35753088  0.82866843  0.37062940    -0.24300
C1362       C  0.44607424  0.90629091  0.41589936    -0.28900
C1363       C  0.47742013  0.89236568  0.42189325     0.06700
C1364       C  0.48691125  0.85925762  0.41611649    -0.27600
H1365       H  0.38467263  0.92629258  0.40283598     0.11400
H1366       H  0.34601760  0.89238962  0.38335549     0.12500
H1367       H  0.49792202  0.79508585  0.40383475     0.11600
H1368       H  0.45912398  0.76111564  0.38446824     0.10800
H1369       H  0.40589438  0.75605157  0.36670920     0.16200
H1370       H  0.33366987  0.83989649  0.36591063     0.12100
H1371       H  0.43858688  0.93164023  0.42053343     0.15000
H1372       H  0.51085868  0.84836098  0.42094579     0.14800
C1373       C  0.21485544  0.81646907  0.26130618    -0.18100
C1374       C  0.24206806  0.80182456  0.27095610    -0.20300
C1375       C  0.24400963  0.80524877  0.28996556     0.20400
C1376       C  0.21818674  0.82326798  0.29941818    -0.03200
C1377       C  0.19036743  0.83752537  0.28970387    -0.06300
C1378       C  0.18901807  0.83447876  0.27054279     0.20700
C1379       C  0.16438024  0.85550479  0.29910095     0.18800
C1380       C  0.16641470  0.85888047  0.31812235    -0.17700
C1381       C  0.19425330  0.84509031  0.32773777    -0.20000
C1382       C  0.22035927  0.82735396  0.31852649     0.20300
C1383       C  0.24846519  0.81344023  0.32804755    -0.33000
C1384       C  0.27372715  0.79472910  0.31869460     0.01000
C1385       C  0.27133623  0.79088562  0.29967256    -0.24300
C1386       C  0.16260226  0.85062395  0.26088233    -0.28900
C1387       C  0.13742803  0.86968248  0.27008616     0.06700
C1388       C  0.13766492  0.87100625  0.28922612    -0.27600
H1389       H  0.21416917  0.81395730  0.24660057     0.11400
H1390       H  0.26177856  0.78807644  0.26353142     0.12500
H1391       H  0.14674401  0.87268572  0.32554088     0.11600
H1392       H  0.19539897  0.84836773  0.34238851     0.10800
H1393       H  0.25017955  0.81626186  0.34271852     0.16200
H1394       H  0.29098279  0.77676780  0.29236940     0.12100
H1395       H  0.16235105  0.84946861  0.24611321     0.15000
H1396       H  0.11839609  0.88592394  0.29634314     0.14800
C1397       C  0.42368066  0.59616730  0.32125398    -0.18100
C1398       C  0.40776371  0.62316913  0.33057309    -0.20300
C1399       C  0.38892484  0.64801656  0.32101382     0.20400
C1400       C  0.38539431  0.64508967  0.30190570    -0.03200
C1401       C  0.40186879  0.61820598  0.29248524    -0.06300
C1402       C  0.42130091  0.59375326  0.30220396     0.20700
C1403       C  0.39980969  0.61648008  0.27328820     0.18800
C1404       C  0.38020008  0.64069633  0.26375043    -0.17700
C1405       C  0.36334212  0.66693313  0.27311226    -0.20000
C1406       C  0.36621245  0.66958738  0.29212213     0.20300
C1407       C  0.35098481  0.69689526  0.30142993    -0.33000
C1408       C  0.35544077  0.70081548  0.32034704     0.01000
C1409       C  0.37420997  0.67614400  0.33011741    -0.24300
C1410       C  0.43909125  0.56817996  0.29262929    -0.28900
C1411       C  0.43858600  0.56760998  0.27348358     0.06700
C1412       C  0.41840260  0.59134330  0.26391836    -0.27600
H1413       H  0.43849298  0.57759081  0.32891343     0.11400
H1414       H  0.41056020  0.62486243  0.34523803     0.12500
H1415       H  0.37828380  0.63962055  0.24902729     0.11600
H1416       H  0.34864579  0.68559204  0.26544198     0.10800
H1417       H  0.33673549  0.71594022  0.29376947     0.16200
H1418       H  0.37744314  0.67893764  0.34471997     0.12100
H1419       H  0.45495251  0.55004721  0.30000882     0.15000
H1420       H  0.41796439  0.59080518  0.24914142     0.14800
C1421       C  0.68934231  0.89450300  0.05294353    -0.18100
C1422       C  0.70994030  0.87221300  0.06306735    -0.20300
C1423       C  0.69860104  0.83870562  0.06697244     0.20400
C1424       C  0.66606458  0.82755460  0.06076011    -0.03200
C1425       C  0.64529626  0.85003036  0.05042337    -0.06300
C1426       C  0.65710839  0.88362907  0.04648554     0.20700
C1427       C  0.61312596  0.83867187  0.04370571     0.18800
C1428       C  0.60171531  0.80521537  0.04777242    -0.17700
C1429       C  0.62213508  0.78308588  0.05822818    -0.20000
C1430       C  0.65450240  0.79387867  0.06467103     0.20300
C1431       C  0.67561446  0.77160568  0.07482391    -0.33000
C1432       C  0.70832330  0.78251116  0.08095446     0.01000
C1433       C  0.71942141  0.81620280  0.07691460    -0.24300
C1434       C  0.63701809  0.90540928  0.03567268    -0.28900
C1435       C  0.60566049  0.89382424  0.02838440     0.06700
C1436       C  0.59352501  0.86065121  0.03262101    -0.27600
H1437       H  0.69881597  0.92014800  0.04998011     0.11400
H1438       H  0.73487372  0.88114548  0.06777051     0.12500
H1439       H  0.57708652  0.79606073  0.04275035     0.11600
H1440       H  0.61275861  0.75737228  0.06110555     0.10800
H1441       H  0.66661389  0.74582177  0.07787098     0.16200
H1442       H  0.74436968  0.82518647  0.08157531     0.12100
H1443       H  0.64646948  0.93082415  0.03212951     0.15000
H1444       H  0.56947525  0.85167845  0.02676419     0.14800
C1445       C  0.64703053  0.58144809  0.12305235    -0.18100
C1446       C  0.66303806  0.60673653  0.11244504    -0.20300
C1447       C  0.68787865  0.62862511  0.12016437     0.20400
C1448       C  0.69780762  0.62386867  0.13854408    -0.03200
C1449       C  0.68104112  0.59907913  0.14935451    -0.06300
C1450       C  0.65520826  0.57812074  0.14160016     0.20700
C1451       C  0.68889180  0.59650585  0.16813155     0.18800
C1452       C  0.71521964  0.61685992  0.17559448    -0.17700
C1453       C  0.73257742  0.64073234  0.16473823    -0.20000
C1454       C  0.72329504  0.64502965  0.14639714     0.20300
C1455       C  0.73790981  0.67129961  0.13605931    -0.33000
C1456       C  0.72651966  0.67782378  0.11817219     0.01000
C1457       C  0.70197767  0.65602386  0.11012279    -0.24300
C1458       C  0.63680349  0.55547165  0.15274560    -0.28900
C1459       C  0.64280376  0.55481620  0.17161557     0.06700
C1460       C  0.66922673  0.57476115  0.17923428    -0.27600
H1461       H  0.62734219  0.56534158  0.11691721     0.11400
H1462       H  0.65542717  0.60968542  0.09832800     0.12500
H1463       H  0.72183174  0.61487850  0.18990326     0.11600
H1464       H  0.75234976  0.65675906  0.17086238     0.10800
H1465       H  0.75682787  0.68802786  0.14242301     0.16200
H1466       H  0.69355569  0.66072086  0.09626342     0.12100
H1467       H  0.61618565  0.54007271  0.14693497     0.15000
H1468       H  0.67388443  0.57387530  0.19380150     0.14800
C1469       C  0.87560521  0.78372335  0.17455830    -0.18100
C1470       C  0.85150718  0.76519870  0.16430469    -0.20300
C1471       C  0.84600317  0.77323430  0.14588771     0.20400
C1472       C  0.86583679  0.79913397  0.13746552    -0.03200
C1473       C  0.89073549  0.81720863  0.14768502    -0.06300
C1474       C  0.89495373  0.81011984  0.16644938     0.20700
C1475       C  0.91047732  0.84325333  0.13928736     0.18800
C1476       C  0.90549524  0.85071519  0.12076849    -0.17700
C1477       C  0.88022150  0.83332939  0.11074699    -0.20000
C1478       C  0.85990107  0.80788648  0.11903074     0.20300
C1479       C  0.83298948  0.79189568  0.10942638    -0.33000
C1480       C  0.81265683  0.76673707  0.11793594     0.01000
C1481       C  0.82003177  0.75678674  0.13596353    -0.24300
C1482       C  0.91762541  0.83031046  0.17685093    -0.28900
C1483       C  0.93684248  0.85656152  0.16854087     0.06700
C1484       C  0.93394495  0.86226258  0.14971596    -0.27600
H1485       H  0.87873413  0.77776305  0.18888501     0.11400
H1486       H  0.83646686  0.74525356  0.17091253     0.12500
H1487       H  0.92052976  0.87065124  0.11415644     0.11600
H1488       H  0.87619475  0.84017189  0.09659787     0.10800
H1489       H  0.82749589  0.79934679  0.09549406     0.16200
H1490       H  0.80427218  0.73750409  0.14266937     0.12100
H1491       H  0.92004417  0.82597021  0.19139178     0.15000
H1492       H  0.94857394  0.88284068  0.14337687     0.14800
C1493       C  0.99186266  0.59468518  0.40220987    -0.18100
C1494       C  0.97632024  0.61243863  0.38782594    -0.20300
C1495       C  0.94399550  0.60204826  0.38118288     0.20400
C1496       C  0.92690252  0.57389288  0.38936325    -0.03200
C1497       C  0.94246077  0.55610491  0.40390516    -0.06300
C1498       C  0.97527703  0.56633418  0.41022384     0.20700
C1499       C  0.92541057  0.52769163  0.41189664     0.18800
C1500       C  0.89289189  0.51764995  0.40549334    -0.17700
C1501       C  0.87754378  0.53521293  0.39106122    -0.20000
C1502       C  0.89446218  0.56311887  0.38284057     0.20300
C1503       C  0.87959489  0.58008508  0.36804720    -0.33000
C1504       C  0.89656748  0.60782404  0.35955728     0.01000
C1505       C  0.92866084  0.61894016  0.36635804    -0.24300
C1506       C  0.99107197  0.54762366  0.42422192    -0.28900
C1507       C  0.97431291  0.51907701  0.43192753     0.06700
C1508       C  0.94144189  0.50942511  0.42592202    -0.27600
H1509       H  0.01699812  0.60293516  0.40695682     0.11400
H1510       H  0.98975957  0.63406094  0.38176143     0.12500
H1511       H  0.87948932  0.49596352  0.41151645     0.11600
H1512       H  0.85254596  0.52675835  0.38621022     0.10800
H1513       H  0.85475138  0.57137811  0.36308750     0.16200
H1514       H  0.94195054  0.64034126  0.35997923     0.12100
H1515       H  0.01654021  0.55481797  0.42897880     0.15000
H1516       H  0.92880390  0.48726986  0.43195618     0.14800
C1517       C  0.73761803  0.63955721  0.28014738    -0.18100
C1518       C  0.70764006  0.62699397  0.27196563    -0.20300
C1519       C  0.69473851  0.59445231  0.27663562     0.20400
C1520       C  0.71200368  0.57448201  0.28983335    -0.03200
C1521       C  0.74236343  0.58709663  0.29802774    -0.06300
C1522       C  0.75519480  0.61971459  0.29307337     0.20700
C1523       C  0.75993433  0.56704972  0.31107570     0.18800
C1524       C  0.74676623  0.53463617  0.31588637    -0.17700
C1525       C  0.71652638  0.52217128  0.30781838    -0.20000
C1526       C  0.69905144  0.54186534  0.29476032     0.20300
C1527       C  0.66898373  0.52945957  0.28644516    -0.33000
C1528       C  0.65201359  0.54902573  0.27308728     0.01000
C1529       C  0.66497103  0.58149023  0.26827064    -0.24300
C1530       C  0.78550386  0.63196071  0.30103085    -0.28900
C1531       C  0.80345027  0.61215957  0.31392959     0.06700
C1532       C  0.79039619  0.57973823  0.31898522    -0.27600
H1533       H  0.74718817  0.66473393  0.27627808     0.11400
H1534       H  0.69461344  0.64268112  0.26193248     0.12500
H1535       H  0.75988094  0.51890023  0.32586561     0.11600
H1536       H  0.70688499  0.49704791  0.31173151     0.10800
H1537       H  0.65906839  0.50433688  0.29019654     0.16200
H1538       H  0.65181227  0.59672322  0.25807668     0.12100
H1539       H  0.79507722  0.65711205  0.29710212     0.15000
H1540       H  0.80403133  0.56428906  0.32890401     0.14800
C1541       C  0.87084985  0.75605666  0.27338838    -0.18100
C1542       C  0.88232139  0.78618084  0.26500123    -0.20300
C1543       C  0.91089562  0.80401072  0.27194758     0.20400
C1544       C  0.92793691  0.79155212  0.28760809    -0.03200
C1545       C  0.91629982  0.76114585  0.29610512    -0.06300
C1546       C  0.88773851  0.74337251  0.28886921     0.20700
C1547       C  0.93328952  0.74846582  0.31173829     0.18800
C1548       C  0.96172703  0.76654132  0.31875123    -0.17700
C1549       C  0.97336091  0.79669591  0.31028359    -0.20000
C1550       C  0.95671143  0.80931359  0.29468022     0.20300
C1551       C  0.96846401  0.83917849  0.28591008    -0.33000
C1552       C  0.95180773  0.85143419  0.27016492     0.01000
C1553       C  0.92289300  0.83388056  0.26337284    -0.24300
C1554       C  0.87642009  0.71316472  0.29719298    -0.28900
C1555       C  0.89296532  0.70019284  0.31281732     0.06700
C1556       C  0.92150464  0.71799599  0.32002967    -0.27600
H1557       H  0.84878894  0.74261456  0.26773478     0.11400
H1558       H  0.86895788  0.79543111  0.25301757     0.12500
H1559       H  0.97505752  0.75729045  0.33074350     0.11600
H1560       H  0.99547950  0.81008566  0.31590084     0.10800
H1561       H  0.99076773  0.85268343  0.29125549     0.16200
H1562       H  0.90991345  0.84324695  0.25128737     0.12100
H1563       H  0.85443667  0.69981826  0.29138970     0.15000
H1564       H  0.93438948  0.70831106  0.33206782     0.14800
loop_ 
_geom_bond_atom_site_label_1 
_geom_bond_atom_site_label_2 
_geom_bond_distance 
_geom_bond_site_symmetry_2 
_ccdc_geom_bond_type 
C1            N2   1.349       .  A
C1            N6   1.354       .  A
C1         C1531   1.479       .  S
N2            C3   1.352       .  A
C3            N4   1.361       .  A
C3         C1555   1.481       .  S
N4            C5   1.365       .  A
C5            N6   1.363       .  A
C5         C1504   1.482       .  S
C7            N8   1.356       .  A
C7           N12   1.346       .  A
C7         C1480   1.472       .  S
N8            C9   1.364       .  A
C9           N10   1.367       .  A
C9         C1432   1.491       .  S
N10          C11   1.363       .  A
C11          N12   1.349       .  A
C11        C1456   1.472       .  S
C13          N14   1.359       .  A
C13          N18   1.352       .  A
C13        C1408   1.477       .  S
N14          C15   1.364       .  A
C15          N16   1.366       .  A
C15        C1360   1.491       .  S
N16          C17   1.361       .  A
C17          N18   1.352       .  A
C17        C1384   1.476       .  S
C19          N20   1.361       .  A
C19          N24   1.365       .  A
C19        C1288   1.480       .  S
N20          C21   1.355       .  A
C21          N22   1.348       .  A
C21        C1315   1.472       .  S
N22          C23   1.349       .  A
C23          N24   1.362       .  A
C23        C1336   1.478       .  S
N25          N26   1.321       .  A
N25          N31   1.316       .  A
N25         Mn54   2.217       .  S
N26          C33   1.357       .  A
N27          N29   1.315       .  A
N27          N28   1.320       .  A
N27         Mn43   2.202   1_645  S
N28          C34   1.353       .  A
N29          N30   1.319       .  A
N29         Mn54   2.193   1_545  S
N30          C34   1.351       .  A
N31          N32   1.318       .  A
N31         Mn43   2.182   1_655  S
N32          C33   1.350       .  A
C33        C1552   1.476       .  S
C34        C1240   1.468       .  S
N35          N41   1.315       .  A
N35          N36   1.322       .  A
N35         Mn65   2.205   1_545  S
N36          C44   1.355       .  A
N37          N38   1.322       .  A
N37          N39   1.314       .  A
N37         Mn43   2.202       .  S
N38          C45   1.355       .  A
N39          N40   1.317       .  A
N39         Mn65   2.189       .  S
N40          C45   1.350       .  A
N41          N42   1.316       .  A
N41         Mn43   2.181   1_545  S
N42          C44   1.349       .  A
Mn43        Cl67   2.548       .  S
C44        C1216   1.471       .  S
C45        C1387   1.473       .  S
N46          N47   1.320   1_565  A
N46          N52   1.316       .  A
N46         Mn54   2.208       .  S
N47          C55   1.355       .  A
N48          N50   1.315       .  A
N48          N49   1.317       .  A
N48         Mn66   2.192   1_655  S
N49          C56   1.350       .  A
N50          N51   1.321       .  A
N50         Mn54   2.196       .  S
N51          C56   1.353       .  A
N52          N53   1.314   1_565  A
N52         Mn66   2.169   1_655  S
N53          C55   1.348       .  A
Mn54        Cl67   2.538   1_655  S
C55        C1312   1.465       .  S
C56        C1483   1.466       .  S
N57          N58   1.321       .  A
N57          N63   1.314       .  A
N57         Mn65   2.209       .  S
N58          C68   1.356       .  A
N59          N60   1.324       .  A
N59          N61   1.315       .  A
N59         Mn66   2.212   1_545  S
N60          C69   1.356       .  A
N61          N62   1.318       .  A
N61         Mn65   2.195   1_545  S
N62          C69   1.350       .  A
N63          N64   1.315       .  A
N63         Mn66   2.168       .  S
N64          C68   1.348       .  A
Mn65        Cl67   2.534       .  S
Mn66        Cl67   2.546       .  S
C68        C1264   1.470       .  S
C69        C1192   1.475       .  S
C70          N71   1.361       .  A
C70          N75   1.357       .  A
C70        C1144   1.477       .  S
N71          C72   1.360       .  A
C72          N73   1.355       .  A
C72        C1267   1.478       .  S
N73          C74   1.353       .  A
C74          N75   1.355       .  A
C74        C1171   1.474       .  S
C76          N77   1.349       .  A
C76          N81   1.356       .  A
C76        C1243   1.476       .  S
N77          C78   1.353       .  A
C78          N79   1.363       .  A
C78        C1123   1.481       .  S
N79          C80   1.366       .  A
C80          N81   1.363       .  A
C80        C1096   1.484       .  S
C82          N83   1.361       .  A
C82          N87   1.359       .  A
C82        C1048   1.480       .  S
N83          C84   1.358       .  A
C84          N85   1.352       .  A
C84        C1219   1.476       .  S
N85          C86   1.352       .  A
C86          N87   1.356       .  A
C86        C1075   1.475       .  S
C88          N89   1.364       .  A
C88          N93   1.365       .  A
C88        C1003   1.491       .  S
N89          C90   1.359       .  A
C90          N91   1.355       .  A
C90        C1024   1.480       .  S
N91          C92   1.356       .  A
C92          N93   1.362       .  A
C92        C1195   1.486       .  S
N94          N95   1.317       .  A
N94         N100   1.315       .  A
N94        Mn123   2.194       .  S
N95         C102   1.351       .  A
N96          N98   1.315       .  A
N96          N97   1.316       .  A
N96        Mn112   2.176       .  S
N97         C103   1.349       .  A
N98          N99   1.318       .  A
N98        Mn123   2.197       .  S
N99         C103   1.353       .  A
N100        N101   1.321       .  A
N100       Mn112   2.193       .  S
N101        C102   1.352       .  A
C102       C1120   1.465       .  S
C103       C1072   1.466       .  S
N104        N110   1.315       .  A
N104        N105   1.318       .  A
N104       Mn134   2.192       .  S
N105        C113   1.351       .  A
N106        N107   1.317       .  A
N106        N108   1.316       .  A
N106       Mn112   2.180       .  S
N107        C114   1.349       .  A
N108        N109   1.322       .  A
N108       Mn134   2.215       .  S
N109        C114   1.356       .  A
N110        N111   1.321       .  A
N110       Mn112   2.200       .  S
N111        C113   1.353       .  A
Mn112      Cl136   2.546       .  S
C113       C1411   1.471       .  S
C114       C1528   1.473       .  S
N115        N116   1.318       .  A
N115        N121   1.314       .  A
N115       Mn123   2.197       .  S
N116        C124   1.352       .  A
N117        N119   1.314       .  A
N117        N118   1.313       .  A
N117       Mn135   2.170       .  S
N118        C125   1.347       .  A
N119        N120   1.323       .  A
N119       Mn123   2.210       .  S
N120        C125   1.357       .  A
N121        N122   1.321       .  A
N121       Mn135   2.192       .  S
N122        C124   1.353       .  A
Mn123      Cl136   2.537       .  S
C124       C1027   1.472       .  S
C125       C1339   1.471       .  S
N126        N127   1.321       .  A
N126        N132   1.314       .  A
N126       Mn134   2.197       .  S
N127        C137   1.354       .  A
N128        N129   1.315       .  A
N128        N130   1.315       .  A
N128       Mn135   2.173       .  S
N129        C138   1.348       .  A
N130        N131   1.321       .  A
N130       Mn134   2.209       .  S
N131        C138   1.355       .  A
N132        N133   1.315       .  A
N132       Mn135   2.177       .  S
N133        C137   1.347       .  A
Mn134      Cl136   2.543       .  S
Mn135      Cl136   2.536       .  S
C137       C1459   1.461       .  S
C138       C1168   1.469       .  S
N139        C144   1.350       .  A
N139        C143   1.355       .  A
N139        H171   1.038       .  S
N140        C147   1.354   1_565  A
N140        C148   1.350   1_565  A
N141        C146   1.358       .  A
N141        C145   1.355       .  A
N141        H172   1.034       .  S
N142        C149   1.353       .  A
N142        C150   1.353       .  A
C143        C151   1.385       .  A
C143        C159   1.413   1_565  A
C144        C160   1.414       .  A
C144        C152   1.388       .  A
C145        C153   1.388       .  A
C145        C162   1.424   1_565  A
C146        C161   1.425       .  A
C146        C154   1.387       .  A
C147        C159   1.411       .  A
C147        C155   1.383       .  A
C148        C162   1.419       .  A
C148        C156   1.390       .  A
C149        C157   1.385       .  A
C149        C160   1.415       .  A
C150        C158   1.388       .  A
C150        C161   1.420       .  A
C151        C152   1.373       .  A
C151        H163   1.082       .  S
C152        H164   1.082       .  S
C153        C154   1.380       .  A
C153        H165   1.082       .  S
C154        H166   1.082       .  S
C155        C156   1.372       .  A
C155        H167   1.082       .  S
C156        H168   1.082       .  S
C157        C158   1.373       .  A
C157        H169   1.082       .  S
C158        H170   1.082       .  S
C159        C952   1.490       .  S
C160        C976   1.483       .  S
C161       C1363   1.495       .  S
C162       C1099   1.486       .  S
N173        C178   1.352   1_556  A
N173        C177   1.352   1_556  A
N173        H205   1.039       .  S
N174        C181   1.353   1_455  A
N174        C182   1.352   1_455  A
N175        C180   1.353       .  A
N175        C179   1.352       .  A
N175        H206   1.037       .  S
N176        C183   1.350       .  A
N176        C184   1.350       .  A
C177        C185   1.387       .  A
C177        C193   1.414       .  A
C178        C194   1.414       .  A
C178        C186   1.387       .  A
C179        C187   1.388       .  A
C179        C196   1.416   1_455  A
C180        C195   1.415       .  A
C180        C188   1.387       .  A
C181        C193   1.414   1_656  A
C181        C189   1.386       .  A
C182        C196   1.417       .  A
C182        C190   1.387       .  A
C183        C191   1.385       .  A
C183        C194   1.410   1_556  A
C184        C192   1.388       .  A
C184        C195   1.413       .  A
C185        C186   1.375       .  A
C185        H197   1.082       .  S
C186        H198   1.082       .  S
C187        C188   1.378       .  A
C187        H199   1.082   1_455  S
C188        H200   1.082       .  S
C189        C190   1.373       .  A
C189        H201   1.082       .  S
C190        H202   1.082       .  S
C191        C192   1.369       .  A
C191        H203   1.082       .  S
C192        H204   1.082       .  S
C193       C1291   1.483   1_455  S
C194       C1147   1.479       .  S
C195        C904   1.481       .  S
C196        C928   1.484       .  S
N207        C212   1.352       .  A
N207        C211   1.352       .  A
N207        H239   1.037       .  S
N208        C215   1.349       .  A
N208        C216   1.348       .  A
N209        C214   1.355       .  A
N209        C213   1.353       .  A
N209        H240   1.035       .  S
N210        C217   1.350       .  A
N210        C218   1.350       .  A
C211        C219   1.388       .  A
C211        C227   1.416       .  A
C212        C228   1.415   1_455  A
C212        C220   1.388       .  A
C213        C221   1.388       .  A
C213        C230   1.420       .  A
C214        C229   1.420   1_455  A
C214        C222   1.387       .  A
C215        C227   1.411       .  A
C215        C223   1.385       .  A
C216        C230   1.415       .  A
C216        C224   1.389       .  A
C217        C225   1.385       .  A
C217        C228   1.412       .  A
C218        C226   1.388       .  A
C218        C229   1.417       .  A
C219        C220   1.372       .  A
C219        H231   1.082       .  S
C220        H232   1.082       .  S
C221        C222   1.375       .  A
C221        H233   1.082       .  S
C222        H234   1.082       .  S
C223        C224   1.371       .  A
C223        H235   1.082       .  S
C224        H236   1.082       .  S
C225        C226   1.370       .  A
C225        H237   1.082       .  S
C226        H238   1.082       .  S
C227       C1051   1.477       .  S
C228       C1507   1.478       .  S
C229        C883   1.483       .  S
C230        C856   1.478       .  S
N241        C246   1.354       .  A
N241        C245   1.351       .  A
N241        H273   1.035       .  S
N242        C249   1.352   1_565  A
N242        C250   1.352   1_565  A
N243        C248   1.355       .  A
N243        C247   1.357       .  A
N243        H274   1.034   1_554  S
N244        C251   1.354       .  A
N244        C252   1.351       .  A
C245        C253   1.387       .  A
C245        C261   1.414   1_565  A
C246        C262   1.415       .  A
C246        C254   1.388       .  A
C247        C255   1.386       .  A
C247        C264   1.422   1_565  A
C248        C263   1.422       .  A
C248        C256   1.388       .  A
C249        C261   1.413       .  A
C249        C257   1.386       .  A
C250        C264   1.418   1_556  A
C250        C258   1.388       .  A
C251        C259   1.383       .  A
C251        C262   1.412       .  A
C252        C260   1.390       .  A
C252        C263   1.420   1_556  A
C253        C254   1.372       .  A
C253        H265   1.082       .  S
C254        H266   1.082       .  S
C255        C256   1.380       .  A
C255        H267   1.082       .  S
C256        H268   1.082       .  S
C257        C258   1.371       .  A
C257        H269   1.082       .  S
C258        H270   1.082       .  S
C259        C260   1.373       .  A
C259        H271   1.082       .  S
C260        H272   1.082   1_556  S
C261        C808   1.477       .  S
C262        C832   1.486       .  S
C263       C1435   1.486       .  S
C264       C1000   1.492       .  S
C275        N276   1.356       .  A
C275        N280   1.353       .  A
C275        C784   1.476       .  S
N276        C277   1.358       .  A
C277        N278   1.362       .  A
C277        C835   1.487       .  S
N278        C279   1.363       .  A
C279        N280   1.354       .  A
C279        C760   1.480       .  S
C281        N282   1.358       .  A
C281        N286   1.354       .  A
C281        C736   1.477       .  S
N282        C283   1.362       .  A
C283        N284   1.363       .  A
C283        C931   1.484       .  S
N284        C285   1.359       .  A
C285        N286   1.353       .  A
C285        C712   1.476       .  S
C287        N288   1.364       .  A
C287        N292   1.360       .  A
C287        C811   1.482       .  S
N288        C289   1.360       .  A
C289        N290   1.352       .  A
C289        C688   1.480       .  S
N290        C291   1.350       .  A
C291        N292   1.356       .  A
C291        C667   1.474       .  S
C293        N294   1.359       .  A
C293        N298   1.355       .  A
C293        C640   1.481       .  S
N294        C295   1.361       .  A
C295        N296   1.362       .  A
C295        C907   1.484       .  S
N296        C297   1.357       .  A
C297        N298   1.356       .  A
C297        C619   1.482       .  S
C299        N300   1.363       .  A
C299        N304   1.360       .  A
C299        C859   1.480       .  S
N300        C301   1.359       .  A
C301        N302   1.352       .  A
C301        C592   1.475       .  S
N302        C303   1.351       .  A
C303        N304   1.354       .  A
C303        C568   1.469       .  S
C305        N306   1.363       .  A
C305        N310   1.365       .  A
C305        C955   1.491       .  S
N306        C307   1.361       .  A
C307        N308   1.351       .  A
C307        C520   1.480       .  S
N308        C309   1.351       .  A
C309        N310   1.361       .  A
C309        C544   1.482       .  S
N311        N312   1.322       .  A
N311        N317   1.316       .  A
N311       Mn340   2.208       .  S
N312        C319   1.355       .  A
N313        N315   1.313       .  A
N313        N314   1.318       .  A
N313       Mn329   2.186       .  S
N314        C320   1.350       .  A
N315        N316   1.321       .  A
N315       Mn340   2.193       .  S
N316        C320   1.352       .  A
N317        N318   1.315       .  A
N317       Mn329   2.186       .  S
N318        C319   1.350       .  A
C319        C763   1.472       .  S
C320        C739   1.467       .  S
N321        N327   1.317       .  A
N321        N322   1.322       .  A
N321       Mn351   2.218       .  S
N322        C330   1.356       .  A
N323        N324   1.322       .  A
N323        N325   1.315       .  A
N323       Mn329   2.191       .  S
N324        C331   1.351       .  A
N325        N326   1.318       .  A
N325       Mn351   2.197       .  S
N326        C331   1.351       .  A
N327        N328   1.315       .  A
N327       Mn329   2.177       .  S
N328        C330   1.349       .  A
Mn329      Cl353   2.549       .  S
C330        C664   1.470       .  S
C331        C616   1.468       .  S
N332        N333   1.319       .  A
N332        N338   1.317       .  A
N332       Mn340   2.201       .  S
N333        C341   1.353       .  A
N334        N336   1.313       .  A
N334        N335   1.322       .  A
N334       Mn352   2.194       .  S
N335        C342   1.353       .  A
N336        N337   1.316       .  A
N336       Mn340   2.182       .  S
N337        C342   1.349       .  A
N338        N339   1.318       .  A
N338       Mn352   2.192       .  S
N339        C341   1.352       .  A
Mn340      Cl353   2.533       .  S
C341        C523   1.471       .  S
C342        C496   1.468       .  S
N343        N344   1.324       .  A
N343        N349   1.318       .  A
N343       Mn351   2.227       .  S
N344        C354   1.358       .  A
N345        N346   1.321       .  A
N345        N347   1.314       .  A
N345       Mn352   2.192       .  S
N346        C355   1.352       .  A
N347        N348   1.318       .  A
N347       Mn351   2.191       .  S
N348        C355   1.351       .  A
N349        N350   1.315       .  A
N349       Mn352   2.187       .  S
N350        C354   1.349       .  A
Mn351      Cl353   2.534       .  S
Mn352      Cl353   2.551       .  S
C354        C472   1.477       .  S
C355        C595   1.467       .  S
C356        N357   1.354       .  A
C356        N361   1.349       .  A
C356        C499   1.472       .  S
N357        C358   1.363       .  A
C358        N359   1.367       .  A
C358        C880   1.487       .  S
N359        C360   1.363       .  A
C360        N361   1.352       .  A
C360        C448   1.480       .  S
C362        N363   1.363       .  A
C362        N367   1.366       .  A
C362        C979   1.484       .  S
N363        C364   1.358       .  A
C364        N365   1.352       .  A
C364        C475   1.481       .  S
N365        C366   1.353       .  A
C366        N367   1.362       .  A
C366        C424   1.485       .  S
N368        N369   1.318   1_455  A
N368        N374   1.313   1_545  A
N368       Mn397   2.186       .  S
N369        C376   1.351       .  A
N370        N372   1.315   1_565  A
N370        N371   1.315       .  A
N370       Mn386   2.181       .  S
N371        C377   1.349   1_565  A
N372        N373   1.324       .  A
N372       Mn397   2.218       .  S
N373        C377   1.358       .  A
N374        N375   1.322   1_465  A
N374       Mn386   2.196       .  S
N375        C376   1.353       .  A
C376        C715   1.468       .  S
C377        C691   1.475       .  S
N378        N384   1.315       .  A
N378        N379   1.321       .  A
N378       Mn408   2.204       .  S
N379        C387   1.353       .  A
N380        N381   1.315   1_455  A
N380        N382   1.316       .  A
N380       Mn386   2.179       .  S
N381        C388   1.349       .  A
N382        N383   1.319   1_455  A
N382       Mn408   2.199       .  S
N383        C388   1.353       .  A
N384        N385   1.318       .  A
N384       Mn386   2.184       .  S
N385        C387   1.349       .  A
Mn386      Cl410   2.543       .  S
C387        C643   1.466       .  S
C388        C787   1.466       .  S
N389        N390   1.315       .  A
N389        N395   1.314   1_545  A
N389       Mn397   2.183       .  S
N390        C398   1.349       .  A
N391        N393   1.316   1_565  A
N391        N392   1.316       .  A
N391       Mn409   2.192   1_655  S
N392        C399   1.351   1_565  A
N393        N394   1.323       .  A
N393       Mn397   2.210   1_655  S
N394        C399   1.355       .  A
N395        N396   1.319   1_565  A
N395       Mn409   2.178       .  S
N396        C398   1.350       .  A
Mn397      Cl410   2.538   1_545  S
C398        C571   1.457       .  S
C399        C547   1.476       .  S
N400        N401   1.320   1_455  A
N400        N406   1.313       .  A
N400       Mn408   2.202       .  S
N401        C411   1.353       .  A
N402        N403   1.319       .  A
N402        N404   1.316       .  A
N402       Mn409   2.203       .  S
N403        C412   1.353       .  A
N404        N405   1.322       .  A
N404       Mn408   2.209       .  S
N405        C412   1.355       .  A
N406        N407   1.318   1_455  A
N406       Mn409   2.175       .  S
N407        C411   1.349       .  A
Mn408      Cl410   2.539       .  S
Mn409      Cl410   2.543       .  S
C411        C451   1.464       .  S
C412        C427   1.480       .  S
C413        C414   1.399       .  A
C413        C418   1.404       .  A
C413        H429   1.083       .  S
C414        C415   1.403       .  A
C414        H430   1.083       .  S
C415        C425   1.406       .  A
C415        C416   1.413       .  A
C416        C422   1.408       .  A
C416        C417   1.412       .  A
C417        C419   1.413       .  A
C417        C418   1.410       .  A
C418        C426   1.402       .  A
C419        C428   1.404       .  A
C419        C420   1.403       .  A
C420        C421   1.399       .  A
C420        H431   1.084       .  S
C421        C422   1.404       .  A
C421        H432   1.084       .  S
C422        C423   1.400       .  A
C423        C424   1.411       .  A
C423        H433   1.084       .  S
C424        C425   1.406       .  A
C425        H434   1.084       .  S
C426        C427   1.407       .  A
C426        H435   1.084       .  S
C427        C428   1.406       .  A
C428        H436   1.084       .  S
C437        C438   1.396       .  A
C437        C442   1.401       .  A
C437        H453   1.084       .  S
C438        C439   1.404       .  A
C438        H454   1.084       .  S
C439        C449   1.395       .  A
C439        C440   1.407       .  A
C440        C446   1.415       .  A
C440        C441   1.409       .  A
C441        C443   1.410       .  A
C441        C442   1.415       .  A
C442        C450   1.401       .  A
C443        C452   1.400       .  A
C443        C444   1.404       .  A
C444        C445   1.400       .  A
C444        H455   1.084       .  S
C445        C446   1.403       .  A
C445        H456   1.083       .  S
C446        C447   1.407       .  A
C447        C448   1.405       .  A
C447        H457   1.084       .  S
C448        C449   1.410       .  A
C449        H458   1.084       .  S
C450        C451   1.400       .  A
C450        H459   1.085       .  S
C451        C452   1.404       .  A
C452        H460   1.085       .  S
C461        C462   1.398       .  A
C461        C466   1.404       .  A
C461        H477   1.084       .  S
C462        C463   1.403       .  A
C462        H478   1.084       .  S
C463        C473   1.405       .  A
C463        C464   1.414       .  A
C464        C470   1.409       .  A
C464        C465   1.411       .  A
C465        C467   1.414       .  A
C465        C466   1.408       .  A
C466        C474   1.398       .  A
C467        C476   1.405       .  A
C467        C468   1.403       .  A
C468        C469   1.399       .  A
C468        H479   1.084       .  S
C469        C470   1.404       .  A
C469        H480   1.084       .  S
C470        C471   1.399       .  A
C471        C472   1.408       .  A
C471        H481   1.084       .  S
C472        C473   1.404       .  A
C473        H482   1.084       .  S
C474        C475   1.410       .  A
C474        H483   1.084       .  S
C475        C476   1.406       .  A
C476        H484   1.084       .  S
C485        C486   1.401       .  A
C485        C490   1.404       .  A
C485        H501   1.083       .  S
C486        C487   1.404       .  A
C486        H502   1.083       .  S
C487        C497   1.405       .  A
C487        C488   1.412       .  A
C488        C494   1.412       .  A
C488        C489   1.409       .  A
C489        C491   1.410       .  A
C489        C490   1.414       .  A
C490        C498   1.407       .  A
C491        C500   1.394       .  A
C491        C492   1.402       .  A
C492        C493   1.395       .  A
C492        H503   1.084       .  S
C493        C494   1.401       .  A
C493        H504   1.084       .  S
C494        C495   1.396       .  A
C495        C496   1.401       .  A
C495        H505   1.085       .  S
C496        C497   1.406       .  A
C497        H506   1.084       .  S
C498        C499   1.405       .  A
C498        H507   1.084       .  S
C499        C500   1.405       .  A
C500        H508   1.085       .  S
C509        C510   1.397       .  A
C509        C514   1.403       .  A
C509        H525   1.084       .  S
C510        C511   1.402       .  A
C510        H526   1.083       .  S
C511        C521   1.402       .  A
C511        C512   1.413       .  A
C512        C518   1.409       .  A
C512        C513   1.408       .  A
C513        C515   1.412       .  A
C513        C514   1.410       .  A
C514        C522   1.398       .  A
C515        C524   1.400       .  A
C515        C516   1.403       .  A
C516        C517   1.398       .  A
C516        H527   1.084       .  S
C517        C518   1.404       .  A
C517        H528   1.084       .  S
C518        C519   1.398       .  A
C519        C520   1.411       .  A
C519        H529   1.084       .  S
C520        C521   1.404       .  A
C521        H530   1.084       .  S
C522        C523   1.404       .  A
C522        H531   1.084       .  S
C523        C524   1.405       .  A
C524        H532   1.084       .  S
C533        C534   1.399       .  A
C533        C538   1.403       .  A
C533        H549   1.084       .  S
C534        C535   1.405       .  A
C534        H550   1.084       .  S
C535        C545   1.400       .  A
C535        C536   1.408       .  A
C536        C542   1.413       .  A
C536        C537   1.410       .  A
C537        C539   1.409       .  A
C537        C538   1.413       .  A
C538        C546   1.405       .  A
C539        C548   1.398       .  A
C539        C540   1.403       .  A
C540        C541   1.397       .  A
C540        H551   1.084   1_545  S
C541        C542   1.402       .  A
C541        H552   1.083       .  S
C542        C543   1.402       .  A
C543        C544   1.404       .  A
C543        H553   1.084       .  S
C544        C545   1.412       .  A
C545        H554   1.084       .  S
C546        C547   1.406       .  A
C546        H555   1.084       .  S
C547        C548   1.406       .  A
C548        H556   1.084   1_545  S
C557        C558   1.394       .  A
C557        C562   1.401       .  A
C557        H573   1.084       .  S
C558        C559   1.402       .  A
C558        H574   1.084       .  S
C559        C569   1.393       .  A
C559        C560   1.410       .  A
C560        C566   1.412       .  A
C560        C561   1.405       .  A
C561        C563   1.412       .  A
C561        C562   1.412       .  A
C562        C570   1.393       .  A
C563        C572   1.400       .  A
C563        C564   1.403       .  A
C564        C565   1.399       .  A
C564        H575   1.084       .  S
C565        C566   1.403       .  A
C565        H576   1.084       .  S
C566        C567   1.401       .  A
C567        C568   1.404       .  A
C567        H577   1.084       .  S
C568        C569   1.405       .  A
C569        H578   1.084       .  S
C570        C571   1.398       .  A
C570        H579   1.085       .  S
C571        C572   1.403       .  A
C572        H580   1.085       .  S
C581        C582   1.395       .  A
C581        C586   1.402       .  A
C581        H597   1.084       .  S
C582        C583   1.403       .  A
C582        H598   1.084       .  S
C583        C593   1.395       .  A
C583        C584   1.409       .  A
C584        C590   1.413       .  A
C584        C585   1.409       .  A
C585        C587   1.411       .  A
C585        C586   1.413       .  A
C586        C594   1.398       .  A
C587        C596   1.404       .  A
C587        C588   1.404       .  A
C588        C589   1.400       .  A
C588        H599   1.083       .  S
C589        C590   1.403       .  A
C589        H600   1.084       .  S
C590        C591   1.405       .  A
C591        C592   1.405       .  A
C591        H601   1.084       .  S
C592        C593   1.407       .  A
C593        H602   1.084       .  S
C594        C595   1.401       .  A
C594        H603   1.085       .  S
C595        C596   1.405       .  A
C596        H604   1.084       .  S
C605        C606   1.403       .  A
C605        C610   1.405       .  A
C605        H621   1.084       .  S
C606        C607   1.405       .  A
C606        H622   1.084       .  S
C607        C617   1.407       .  A
C607        C608   1.412       .  A
C608        C614   1.412       .  A
C608        C609   1.411       .  A
C609        C611   1.410       .  A
C609        C610   1.412       .  A
C610        C618   1.408       .  A
C611        C620   1.396       .  A
C611        C612   1.402       .  A
C612        C613   1.395       .  A
C612        H623   1.084       .  S
C613        C614   1.401       .  A
C613        H624   1.084       .  S
C614        C615   1.397       .  A
C615        C616   1.399       .  A
C615        H625   1.085       .  S
C616        C617   1.407       .  A
C617        H626   1.084       .  S
C618        C619   1.410       .  A
C618        H627   1.084       .  S
C619        C620   1.406       .  A
C620        H628   1.084       .  S
C629        C630   1.398       .  A
C629        C634   1.403       .  A
C629        H645   1.084       .  S
C630        C631   1.403       .  A
C630        H646   1.084       .  S
C631        C641   1.403       .  A
C631        C632   1.412       .  A
C632        C638   1.410       .  A
C632        C633   1.410       .  A
C633        C635   1.413       .  A
C633        C634   1.411       .  A
C634        C642   1.400       .  A
C635        C644   1.402       .  A
C635        C636   1.402       .  A
C636        C637   1.398       .  A
C636        H647   1.084       .  S
C637        C638   1.404       .  A
C637        H648   1.084       .  S
C638        C639   1.400       .  A
C639        C640   1.409       .  A
C639        H649   1.084       .  S
C640        C641   1.406       .  A
C641        H650   1.084       .  S
C642        C643   1.404       .  A
C642        H651   1.085       .  S
C643        C644   1.401       .  A
C644        H652   1.085       .  S
C653        C654   1.397       .  A
C653        C658   1.403       .  A
C653        H669   1.084       .  S
C654        C655   1.402       .  A
C654        H670   1.084       .  S
C655        C665   1.401       .  A
C655        C656   1.413       .  A
C656        C662   1.409       .  A
C656        C657   1.407       .  A
C657        C659   1.413       .  A
C657        C658   1.409       .  A
C658        C666   1.396       .  A
C659        C668   1.400       .  A
C659        C660   1.402       .  A
C660        C661   1.397       .  A
C660        H671   1.084       .  S
C661        C662   1.403       .  A
C661        H672   1.084       .  S
C662        C663   1.397       .  A
C663        C664   1.406       .  A
C663        H673   1.084       .  S
C664        C665   1.403       .  A
C665        H674   1.084       .  S
C666        C667   1.408       .  A
C666        H675   1.084       .  S
C667        C668   1.404       .  A
C668        H676   1.084       .  S
C677        C678   1.398       .  A
C677        C682   1.402       .  A
C677        H693   1.084       .  S
C678        C679   1.404       .  A
C678        H694   1.084       .  S
C679        C689   1.397       .  A
C679        C680   1.408       .  A
C680        C686   1.414       .  A
C680        C681   1.410       .  A
C681        C683   1.409       .  A
C681        C682   1.414       .  A
C682        C690   1.404       .  A
C683        C692   1.398       .  A
C683        C684   1.404       .  A
C684        C685   1.398       .  A
C684        H695   1.084   1_545  S
C685        C686   1.403       .  A
C685        H696   1.084       .  S
C686        C687   1.405       .  A
C687        C688   1.406       .  A
C687        H697   1.084       .  S
C688        C689   1.410       .  A
C689        H698   1.084       .  S
C690        C691   1.404       .  A
C690        H699   1.084       .  S
C691        C692   1.407       .  A
C692        H700   1.084   1_545  S
C701        C702   1.400       .  A
C701        C706   1.404       .  A
C701        H717   1.083       .  S
C702        C703   1.403       .  A
C702        H718   1.083       .  S
C703        C713   1.405       .  A
C703        C704   1.413       .  A
C704        C710   1.410       .  A
C704        C705   1.410       .  A
C705        C707   1.412       .  A
C705        C706   1.412       .  A
C706        C714   1.404       .  A
C707        C716   1.399       .  A
C707        C708   1.402       .  A
C708        C709   1.397       .  A
C708        H719   1.084       .  S
C709        C710   1.403       .  A
C709        H720   1.084       .  S
C710        C711   1.398       .  A
C711        C712   1.407       .  A
C711        H721   1.084       .  S
C712        C713   1.405       .  A
C713        H722   1.084       .  S
C714        C715   1.405       .  A
C714        H723   1.084       .  S
C715        C716   1.402       .  A
C716        H724   1.085       .  S
C725        C726   1.399       .  A
C725        C730   1.404       .  A
C725        H741   1.084       .  S
C726        C727   1.403       .  A
C726        H742   1.084       .  S
C727        C737   1.405       .  A
C727        C728   1.413       .  A
C728        C734   1.409       .  A
C728        C729   1.409       .  A
C729        C731   1.414       .  A
C729        C730   1.410       .  A
C730        C738   1.400       .  A
C731        C740   1.402       .  A
C731        C732   1.402       .  A
C732        C733   1.397       .  A
C732        H743   1.084       .  S
C733        C734   1.403       .  A
C733        H744   1.084       .  S
C734        C735   1.397       .  A
C735        C736   1.407       .  A
C735        H745   1.084       .  S
C736        C737   1.406       .  A
C737        H746   1.084       .  S
C738        C739   1.404       .  A
C738        H747   1.084       .  S
C739        C740   1.401       .  A
C740        H748   1.085       .  S
C749        C750   1.395       .  A
C749        C754   1.402       .  A
C749        H765   1.084       .  S
C750        C751   1.401       .  A
C750        H766   1.084       .  S
C751        C761   1.399       .  A
C751        C752   1.413       .  A
C752        C758   1.409       .  A
C752        C753   1.409       .  A
C753        C755   1.413       .  A
C753        C754   1.410       .  A
C754        C762   1.395       .  A
C755        C764   1.405       .  A
C755        C756   1.404       .  A
C756        C757   1.401       .  A
C756        H767   1.084       .  S
C757        C758   1.405       .  A
C757        H768   1.084       .  S
C758        C759   1.403       .  A
C759        C760   1.411       .  A
C759        H769   1.084       .  S
C760        C761   1.403       .  A
C761        H770   1.084       .  S
C762        C763   1.404       .  A
C762        H771   1.084       .  S
C763        C764   1.406       .  A
C764        H772   1.084       .  S
C773        C774   1.397       .  A
C773        C778   1.402       .  A
C773        H789   1.084       .  S
C774        C775   1.403       .  A
C774        H790   1.084       .  S
C775        C785   1.398       .  A
C775        C776   1.410       .  A
C776        C782   1.411       .  A
C776        C777   1.407       .  A
C777        C779   1.410       .  A
C777        C778   1.412       .  A
C778        C786   1.399       .  A
C779        C788   1.396       .  A
C779        C780   1.402       .  A
C780        C781   1.396       .  A
C780        H791   1.084       .  S
C781        C782   1.402       .  A
C781        H792   1.084       .  S
C782        C783   1.398       .  A
C783        C784   1.406       .  A
C783        H793   1.084       .  S
C784        C785   1.408       .  A
C785        H794   1.084       .  S
C786        C787   1.403       .  A
C786        H795   1.084       .  S
C787        C788   1.404       .  A
C788        H796   1.084       .  S
C797        C798   1.397       .  A
C797        C802   1.403       .  A
C797        H813   1.083       .  S
C798        C799   1.402       .  A
C798        H814   1.084   1_545  S
C799        C809   1.398       .  A
C799        C800   1.412       .  A
C800        C806   1.413       .  A
C800        C801   1.410       .  A
C801        C803   1.410       .  A
C801        C802   1.411       .  A
C802        C810   1.400       .  A
C803        C812   1.402       .  A
C803        C804   1.405       .  A
C804        C805   1.399       .  A
C804        H815   1.084       .  S
C805        C806   1.403       .  A
C805        H816   1.084       .  S
C806        C807   1.402       .  A
C807        C808   1.402       .  A
C807        H817   1.084       .  S
C808        C809   1.401       .  A
C809        H818   1.085   1_545  S
C810        C811   1.406       .  A
C810        H819   1.084       .  S
C811        C812   1.410       .  A
C812        H820   1.084       .  S
C821        C822   1.400       .  A
C821        C826   1.404       .  A
C821        H837   1.084       .  S
C822        C823   1.404       .  A
C822        H838   1.083       .  S
C823        C833   1.404       .  A
C823        C824   1.411       .  A
C824        C830   1.413       .  A
C824        C825   1.413       .  A
C825        C827   1.410       .  A
C825        C826   1.412       .  A
C826        C834   1.406       .  A
C827        C836   1.401       .  A
C827        C828   1.404       .  A
C828        C829   1.399       .  A
C828        H839   1.084       .  S
C829        C830   1.403       .  A
C829        H840   1.083       .  S
C830        C831   1.404       .  A
C831        C832   1.403       .  A
C831        H841   1.084       .  S
C832        C833   1.405       .  A
C833        H842   1.084       .  S
C834        C835   1.408       .  A
C834        H843   1.084       .  S
C835        C836   1.410       .  A
C836        H844   1.084       .  S
C845        C846   1.398       .  A
C845        C850   1.403       .  A
C845        H861   1.084       .  S
C846        C847   1.403       .  A
C846        H862   1.083       .  S
C847        C857   1.401       .  A
C847        C848   1.412       .  A
C848        C854   1.413       .  A
C848        C849   1.409       .  A
C849        C851   1.410       .  A
C849        C850   1.411       .  A
C850        C858   1.401       .  A
C851        C860   1.400       .  A
C851        C852   1.404       .  A
C852        C853   1.398       .  A
C852        H863   1.084       .  S
C853        C854   1.402       .  A
C853        H864   1.084       .  S
C854        C855   1.400       .  A
C855        C856   1.401       .  A
C855        H865   1.084       .  S
C856        C857   1.403       .  A
C857        H866   1.084       .  S
C858        C859   1.406       .  A
C858        H867   1.084       .  S
C859        C860   1.409       .  A
C860        H868   1.084       .  S
C869        C870   1.401       .  A
C869        C874   1.404       .  A
C869        H885   1.084   1_655  S
C870        C871   1.404       .  A
C870        H886   1.083       .  S
C871        C881   1.407       .  A
C871        C872   1.412       .  A
C872        C878   1.409       .  A
C872        C873   1.412       .  A
C873        C875   1.413       .  A
C873        C874   1.411       .  A
C874        C882   1.403       .  A
C875        C884   1.402       .  A
C875        C876   1.402       .  A
C876        C877   1.397       .  A
C876        H887   1.084       .  S
C877        C878   1.403       .  A
C877        H888   1.084       .  S
C878        C879   1.399       .  A
C879        C880   1.409       .  A
C879        H889   1.084       .  S
C880        C881   1.409       .  A
C881        H890   1.084       .  S
C882        C883   1.405       .  A
C882        H891   1.084   1_655  S
C883        C884   1.401       .  A
C884        H892   1.084       .  S
C893        C894   1.401       .  A
C893        C898   1.405       .  A
C893        H909   1.084       .  S
C894        C895   1.404       .  A
C894        H910   1.084       .  S
C895        C905   1.405       .  A
C895        C896   1.412       .  A
C896        C902   1.413       .  A
C896        C897   1.411       .  A
C897        C899   1.410       .  A
C897        C898   1.412       .  A
C898        C906   1.406       .  A
C899        C908   1.399       .  A
C899        C900   1.402       .  A
C900        C901   1.396       .  A
C900        H911   1.084       .  S
C901        C902   1.402       .  A
C901        H912   1.083       .  S
C902        C903   1.400       .  A
C903        C904   1.401       .  A
C903        H913   1.085       .  S
C904        C905   1.405       .  A
C905        H914   1.084       .  S
C906        C907   1.410       .  A
C906        H915   1.084       .  S
C907        C908   1.407       .  A
C908        H916   1.084       .  S
C917        C918   1.399       .  A
C917        C922   1.404       .  A
C917        H933   1.084       .  S
C918        C919   1.403       .  A
C918        H934   1.083       .  S
C919        C929   1.403       .  A
C919        C920   1.412       .  A
C920        C926   1.412       .  A
C920        C921   1.412       .  A
C921        C923   1.411       .  A
C921        C922   1.411       .  A
C922        C930   1.403       .  A
C923        C932   1.404       .  A
C923        C924   1.404       .  A
C924        C925   1.400       .  A
C924        H935   1.084       .  S
C925        C926   1.403       .  A
C925        H936   1.084   1_655  S
C926        C927   1.404       .  A
C927        C928   1.404       .  A
C927        H937   1.084   1_655  S
C928        C929   1.403       .  A
C929        H938   1.084       .  S
C930        C931   1.408       .  A
C930        H939   1.084       .  S
C931        C932   1.409       .  A
C932        H940   1.084       .  S
C941        C942   1.399       .  A
C941        C946   1.404       .  A
C941        H957   1.084       .  S
C942        C943   1.403       .  A
C942        H958   1.083   1_545  S
C943        C953   1.405       .  A
C943        C944   1.412       .  A
C944        C950   1.413       .  A
C944        C945   1.415       .  A
C945        C947   1.411       .  A
C945        C946   1.411       .  A
C946        C954   1.405       .  A
C947        C956   1.407       .  A
C947        C948   1.405       .  A
C948        C949   1.402       .  A
C948        H959   1.084       .  S
C949        C950   1.404       .  A
C949        H960   1.083       .  S
C950        C951   1.408       .  A
C951        C952   1.406       .  A
C951        H961   1.084       .  S
C952        C953   1.404       .  A
C953        H962   1.084   1_545  S
C954        C955   1.409       .  A
C954        H963   1.084       .  S
C955        C956   1.411       .  A
C956        H964   1.084       .  S
C965        C966   1.399       .  A
C965        C970   1.404       .  A
C965        H981   1.084       .  S
C966        C967   1.403       .  A
C966        H982   1.084       .  S
C967        C977   1.402       .  A
C967        C968   1.412       .  A
C968        C974   1.413       .  A
C968        C969   1.412       .  A
C969        C971   1.412       .  A
C969        C970   1.411       .  A
C970        C978   1.404       .  A
C971        C980   1.405       .  A
C971        C972   1.404       .  A
C972        C973   1.399       .  A
C972        H983   1.083       .  S
C973        C974   1.403       .  A
C973        H984   1.084       .  S
C974        C975   1.403       .  A
C975        C976   1.403       .  A
C975        H985   1.084       .  S
C976        C977   1.404       .  A
C977        H986   1.085       .  S
C978        C979   1.409       .  A
C978        H987   1.084       .  S
C979        C980   1.407       .  A
C980        H988   1.084       .  S
C989        C990   1.401       .  A
C989        C994   1.404       .  A
C989       H1005   1.084       .  S
C990        C991   1.404       .  A
C990       H1006   1.083       .  S
C991       C1001   1.407       .  A
C991        C992   1.412       .  A
C992        C998   1.413       .  A
C992        C993   1.416       .  A
C993        C995   1.411       .  A
C993        C994   1.412       .  A
C994       C1002   1.407       .  A
C995       C1004   1.405       .  A
C995        C996   1.404       .  A
C996        C997   1.400       .  A
C996       H1007   1.084       .  S
C997        C998   1.404       .  A
C997       H1008   1.083       .  S
C998        C999   1.406       .  A
C999       C1000   1.405       .  A
C999       H1009   1.084       .  S
C1000      C1001   1.407       .  A
C1001      H1010   1.084   1_545  S
C1002      C1003   1.410       .  A
C1002      H1011   1.084       .  S
C1003      C1004   1.410       .  A
C1004      H1012   1.084       .  S
C1013      C1014   1.402       .  A
C1013      C1018   1.405       .  A
C1013      H1029   1.084       .  S
C1014      C1015   1.405       .  A
C1014      H1030   1.083       .  S
C1015      C1025   1.409       .  A
C1015      C1016   1.413       .  A
C1016      C1022   1.410       .  A
C1016      C1017   1.412       .  A
C1017      C1019   1.413       .  A
C1017      C1018   1.411       .  A
C1018      C1026   1.405       .  A
C1019      C1028   1.400       .  A
C1019      C1020   1.402       .  A
C1020      C1021   1.396       .  A
C1020      H1031   1.084       .  S
C1021      C1022   1.403       .  A
C1021      H1032   1.084       .  S
C1022      C1023   1.398       .  A
C1023      C1024   1.406       .  A
C1023      H1033   1.084       .  S
C1024      C1025   1.407       .  A
C1025      H1034   1.084       .  S
C1026      C1027   1.406       .  A
C1026      H1035   1.084       .  S
C1027      C1028   1.402       .  A
C1028      H1036   1.085       .  S
C1037      C1038   1.398       .  A
C1037      C1042   1.403       .  A
C1037      H1053   1.084       .  S
C1038      C1039   1.403       .  A
C1038      H1054   1.084       .  S
C1039      C1049   1.401       .  A
C1039      C1040   1.411       .  A
C1040      C1046   1.411       .  A
C1040      C1041   1.409       .  A
C1041      C1043   1.412       .  A
C1041      C1042   1.413       .  A
C1042      C1050   1.401       .  A
C1043      C1052   1.399       .  A
C1043      C1044   1.402       .  A
C1044      C1045   1.397       .  A
C1044      H1055   1.084       .  S
C1045      C1046   1.403       .  A
C1045      H1056   1.084       .  S
C1046      C1047   1.400       .  A
C1047      C1048   1.408       .  A
C1047      H1057   1.084       .  S
C1048      C1049   1.407       .  A
C1049      H1058   1.084       .  S
C1050      C1051   1.402       .  A
C1050      H1059   1.084       .  S
C1051      C1052   1.401       .  A
C1052      H1060   1.085       .  S
C1061      C1062   1.397       .  A
C1061      C1066   1.403       .  A
C1061      H1077   1.084       .  S
C1062      C1063   1.403       .  A
C1062      H1078   1.084       .  S
C1063      C1073   1.397       .  A
C1063      C1064   1.410       .  A
C1064      C1070   1.412       .  A
C1064      C1065   1.406       .  A
C1065      C1067   1.409       .  A
C1065      C1066   1.412       .  A
C1066      C1074   1.400       .  A
C1067      C1076   1.396       .  A
C1067      C1068   1.403       .  A
C1068      C1069   1.396       .  A
C1068      H1079   1.084       .  S
C1069      C1070   1.402       .  A
C1069      H1080   1.084       .  S
C1070      C1071   1.398       .  A
C1071      C1072   1.402       .  A
C1071      H1081   1.084       .  S
C1072      C1073   1.404       .  A
C1073      H1082   1.084       .  S
C1074      C1075   1.406       .  A
C1074      H1083   1.084       .  S
C1075      C1076   1.407       .  A
C1076      H1084   1.084       .  S
C1085      C1086   1.400       .  A
C1085      C1090   1.404       .  A
C1085      H1101   1.084       .  S
C1086      C1087   1.404       .  A
C1086      H1102   1.083       .  S
C1087      C1097   1.406       .  A
C1087      C1088   1.413       .  A
C1088      C1094   1.410       .  A
C1088      C1089   1.413       .  A
C1089      C1091   1.414       .  A
C1089      C1090   1.411       .  A
C1090      C1098   1.402       .  A
C1091      C1100   1.404       .  A
C1091      C1092   1.403       .  A
C1092      C1093   1.399       .  A
C1092      H1103   1.084   1_545  S
C1093      C1094   1.404       .  A
C1093      H1104   1.084       .  S
C1094      C1095   1.401       .  A
C1095      C1096   1.409       .  A
C1095      H1105   1.084       .  S
C1096      C1097   1.407       .  A
C1097      H1106   1.084       .  S
C1098      C1099   1.406       .  A
C1098      H1107   1.084       .  S
C1099      C1100   1.403       .  A
C1100      H1108   1.084   1_545  S
C1109      C1110   1.394       .  A
C1109      C1114   1.403       .  A
C1109      H1125   1.084       .  S
C1110      C1111   1.401       .  A
C1110      H1126   1.084       .  S
C1111      C1121   1.397       .  A
C1111      C1112   1.413       .  A
C1112      C1118   1.411       .  A
C1112      C1113   1.410       .  A
C1113      C1115   1.414       .  A
C1113      C1114   1.408       .  A
C1114      C1122   1.393       .  A
C1115      C1124   1.409       .  A
C1115      C1116   1.404       .  A
C1116      C1117   1.402       .  A
C1116      H1127   1.083       .  S
C1117      C1118   1.405       .  A
C1117      H1128   1.083       .  S
C1118      C1119   1.404       .  A
C1119      C1120   1.405       .  A
C1119      H1129   1.084       .  S
C1120      C1121   1.400       .  A
C1121      H1130   1.085       .  S
C1122      C1123   1.408       .  A
C1122      H1131   1.084       .  S
C1123      C1124   1.407       .  A
C1124      H1132   1.084       .  S
C1133      C1134   1.398       .  A
C1133      C1138   1.403       .  A
C1133      H1149   1.084       .  S
C1134      C1135   1.404       .  A
C1134      H1150   1.084       .  S
C1135      C1145   1.400       .  A
C1135      C1136   1.410       .  A
C1136      C1142   1.412       .  A
C1136      C1137   1.410       .  A
C1137      C1139   1.412       .  A
C1137      C1138   1.413       .  A
C1138      C1146   1.401       .  A
C1139      C1148   1.400       .  A
C1139      C1140   1.403       .  A
C1140      C1141   1.398       .  A
C1140      H1151   1.084       .  S
C1141      C1142   1.403       .  A
C1141      H1152   1.084       .  S
C1142      C1143   1.402       .  A
C1143      C1144   1.405       .  A
C1143      H1153   1.084       .  S
C1144      C1145   1.407       .  A
C1145      H1154   1.084       .  S
C1146      C1147   1.402       .  A
C1146      H1155   1.084       .  S
C1147      C1148   1.402       .  A
C1148      H1156   1.084       .  S
C1157      C1158   1.396       .  A
C1157      C1162   1.402       .  A
C1157      H1173   1.084       .  S
C1158      C1159   1.403       .  A
C1158      H1174   1.084       .  S
C1159      C1169   1.396       .  A
C1159      C1160   1.410       .  A
C1160      C1166   1.413       .  A
C1160      C1161   1.407       .  A
C1161      C1163   1.410       .  A
C1161      C1162   1.412       .  A
C1162      C1170   1.398       .  A
C1163      C1172   1.398       .  A
C1163      C1164   1.403       .  A
C1164      C1165   1.397       .  A
C1164      H1175   1.084       .  S
C1165      C1166   1.402       .  A
C1165      H1176   1.084       .  S
C1166      C1167   1.401       .  A
C1167      C1168   1.403       .  A
C1167      H1177   1.084       .  S
C1168      C1169   1.405       .  A
C1169      H1178   1.084       .  S
C1170      C1171   1.405       .  A
C1170      H1179   1.084       .  S
C1171      C1172   1.407       .  A
C1172      H1180   1.084       .  S
C1181      C1182   1.401       .  A
C1181      C1186   1.404       .  A
C1181      H1197   1.083       .  S
C1182      C1183   1.404       .  A
C1182      H1198   1.083       .  S
C1183      C1193   1.407       .  A
C1183      C1184   1.412       .  A
C1184      C1190   1.412       .  A
C1184      C1185   1.414       .  A
C1185      C1187   1.410       .  A
C1185      C1186   1.412       .  A
C1186      C1194   1.408       .  A
C1187      C1196   1.401       .  A
C1187      C1188   1.404       .  A
C1188      C1189   1.398       .  A
C1188      H1199   1.084       .  S
C1189      C1190   1.403       .  A
C1189      H1200   1.084       .  S
C1190      C1191   1.402       .  A
C1191      C1192   1.404       .  A
C1191      H1201   1.085       .  S
C1192      C1193   1.406       .  A
C1193      H1202   1.084       .  S
C1194      C1195   1.408       .  A
C1194      H1203   1.084       .  S
C1195      C1196   1.410       .  A
C1196      H1204   1.084       .  S
C1205      C1206   1.397       .  A
C1205      C1210   1.403       .  A
C1205      H1221   1.084       .  S
C1206      C1207   1.402       .  A
C1206      H1222   1.084       .  S
C1207      C1217   1.402       .  A
C1207      C1208   1.414       .  A
C1208      C1214   1.409       .  A
C1208      C1209   1.408       .  A
C1209      C1211   1.413       .  A
C1209      C1210   1.409       .  A
C1210      C1218   1.397       .  A
C1211      C1220   1.402       .  A
C1211      C1212   1.402       .  A
C1212      C1213   1.397       .  A
C1212      H1223   1.084       .  S
C1213      C1214   1.403       .  A
C1213      H1224   1.084       .  S
C1214      C1215   1.398       .  A
C1215      C1216   1.406       .  A
C1215      H1225   1.084       .  S
C1216      C1217   1.403       .  A
C1217      H1226   1.084       .  S
C1218      C1219   1.408       .  A
C1218      H1227   1.084       .  S
C1219      C1220   1.405       .  A
C1220      H1228   1.084       .  S
C1229      C1230   1.397       .  A
C1229      C1234   1.402       .  A
C1229      H1245   1.083       .  S
C1230      C1231   1.403       .  A
C1230      H1246   1.083       .  S
C1231      C1241   1.399       .  A
C1231      C1232   1.411       .  A
C1232      C1238   1.413       .  A
C1232      C1233   1.410       .  A
C1233      C1235   1.409       .  A
C1233      C1234   1.413       .  A
C1234      C1242   1.403       .  A
C1235      C1244   1.399       .  A
C1235      C1236   1.404       .  A
C1236      C1237   1.399       .  A
C1236      H1247   1.084       .  S
C1237      C1238   1.403       .  A
C1237      H1248   1.084       .  S
C1238      C1239   1.404       .  A
C1239      C1240   1.404       .  A
C1239      H1249   1.085       .  S
C1240      C1241   1.403       .  A
C1241      H1250   1.084       .  S
C1242      C1243   1.403       .  A
C1242      H1251   1.084       .  S
C1243      C1244   1.409       .  A
C1244      H1252   1.084       .  S
C1253      C1254   1.398       .  A
C1253      C1258   1.403       .  A
C1253      H1269   1.084       .  S
C1254      C1255   1.403       .  A
C1254      H1270   1.084       .  S
C1255      C1265   1.398       .  A
C1255      C1256   1.410       .  A
C1256      C1262   1.413       .  A
C1256      C1257   1.408       .  A
C1257      C1259   1.409       .  A
C1257      C1258   1.412       .  A
C1258      C1266   1.402       .  A
C1259      C1268   1.397       .  A
C1259      C1260   1.403       .  A
C1260      C1261   1.396       .  A
C1260      H1271   1.084       .  S
C1261      C1262   1.402       .  A
C1261      H1272   1.084       .  S
C1262      C1263   1.400       .  A
C1263      C1264   1.402       .  A
C1263      H1273   1.084       .  S
C1264      C1265   1.407       .  A
C1265      H1274   1.084       .  S
C1266      C1267   1.406       .  A
C1266      H1275   1.084       .  S
C1267      C1268   1.409       .  A
C1268      H1276   1.084       .  S
C1277      C1278   1.398       .  A
C1277      C1282   1.403       .  A
C1277      H1293   1.084   1_655  S
C1278      C1279   1.404       .  A
C1278      H1294   1.084       .  S
C1279      C1289   1.400       .  A
C1279      C1280   1.410       .  A
C1280      C1286   1.413       .  A
C1280      C1281   1.412       .  A
C1281      C1283   1.412       .  A
C1281      C1282   1.413       .  A
C1282      C1290   1.403       .  A
C1283      C1292   1.402       .  A
C1283      C1284   1.403       .  A
C1284      C1285   1.399       .  A
C1284      H1295   1.083       .  S
C1285      C1286   1.403       .  A
C1285      H1296   1.083       .  S
C1286      C1287   1.405       .  A
C1287      C1288   1.406       .  A
C1287      H1297   1.084       .  S
C1288      C1289   1.408       .  A
C1289      H1298   1.084       .  S
C1290      C1291   1.403       .  A
C1290      H1299   1.084   1_655  S
C1291      C1292   1.403       .  A
C1292      H1300   1.084       .  S
C1301      C1302   1.395       .  A
C1301      C1306   1.403       .  A
C1301      H1317   1.084       .  S
C1302      C1303   1.401       .  A
C1302      H1318   1.084       .  S
C1303      C1313   1.398       .  A
C1303      C1304   1.414       .  A
C1304      C1310   1.409       .  A
C1304      C1305   1.406       .  A
C1305      C1307   1.413       .  A
C1305      C1306   1.408       .  A
C1306      C1314   1.393       .  A
C1307      C1316   1.401       .  A
C1307      C1308   1.402       .  A
C1308      C1309   1.397       .  A
C1308      H1319   1.084       .  S
C1309      C1310   1.403       .  A
C1309      H1320   1.084       .  S
C1310      C1311   1.396       .  A
C1311      C1312   1.405       .  A
C1311      H1321   1.084       .  S
C1312      C1313   1.401       .  A
C1313      H1322   1.084       .  S
C1314      C1315   1.407       .  A
C1314      H1323   1.084       .  S
C1315      C1316   1.404       .  A
C1316      H1324   1.084       .  S
C1325      C1326   1.398       .  A
C1325      C1330   1.402       .  A
C1325      H1341   1.084       .  S
C1326      C1327   1.405       .  A
C1326      H1342   1.084       .  S
C1327      C1337   1.397       .  A
C1327      C1328   1.407       .  A
C1328      C1334   1.414       .  A
C1328      C1329   1.408       .  A
C1329      C1331   1.408       .  A
C1329      C1330   1.414       .  A
C1330      C1338   1.403       .  A
C1331      C1340   1.395       .  A
C1331      C1332   1.403       .  A
C1332      C1333   1.396       .  A
C1332      H1343   1.084       .  S
C1333      C1334   1.401       .  A
C1333      H1344   1.084       .  S
C1334      C1335   1.402       .  A
C1335      C1336   1.403       .  A
C1335      H1345   1.084       .  S
C1336      C1337   1.412       .  A
C1337      H1346   1.084       .  S
C1338      C1339   1.403       .  A
C1338      H1347   1.084       .  S
C1339      C1340   1.406       .  A
C1340      H1348   1.084       .  S
C1349      C1350   1.401       .  A
C1349      C1354   1.404       .  A
C1349      H1365   1.083       .  S
C1350      C1351   1.404       .  A
C1350      H1366   1.084       .  S
C1351      C1361   1.406       .  A
C1351      C1352   1.411       .  A
C1352      C1358   1.411       .  A
C1352      C1353   1.416       .  A
C1353      C1355   1.412       .  A
C1353      C1354   1.412       .  A
C1354      C1362   1.407       .  A
C1355      C1364   1.407       .  A
C1355      C1356   1.404       .  A
C1356      C1357   1.401       .  A
C1356      H1367   1.083       .  S
C1357      C1358   1.404       .  A
C1357      H1368   1.084       .  S
C1358      C1359   1.405       .  A
C1359      C1360   1.411       .  A
C1359      H1369   1.084       .  S
C1360      C1361   1.410       .  A
C1361      H1370   1.084       .  S
C1362      C1363   1.406       .  A
C1362      H1371   1.084       .  S
C1363      C1364   1.407       .  A
C1364      H1372   1.084       .  S
C1373      C1374   1.397       .  A
C1373      C1378   1.402       .  A
C1373      H1389   1.084       .  S
C1374      C1375   1.403       .  A
C1374      H1390   1.084       .  S
C1375      C1385   1.398       .  A
C1375      C1376   1.410       .  A
C1376      C1382   1.413       .  A
C1376      C1377   1.411       .  A
C1377      C1379   1.412       .  A
C1377      C1378   1.412       .  A
C1378      C1386   1.399       .  A
C1379      C1388   1.405       .  A
C1379      C1380   1.404       .  A
C1380      C1381   1.401       .  A
C1380      H1391   1.083       .  S
C1381      C1382   1.404       .  A
C1381      H1392   1.083       .  S
C1382      C1383   1.407       .  A
C1383      C1384   1.405       .  A
C1383      H1393   1.084       .  S
C1384      C1385   1.407       .  A
C1385      H1394   1.085       .  S
C1386      C1387   1.404       .  A
C1386      H1395   1.085       .  S
C1387      C1388   1.405       .  A
C1388      H1396   1.084       .  S
C1397      C1398   1.400       .  A
C1397      C1402   1.404       .  A
C1397      H1413   1.084       .  S
C1398      C1399   1.404       .  A
C1398      H1414   1.083       .  S
C1399      C1409   1.406       .  A
C1399      C1400   1.413       .  A
C1400      C1406   1.410       .  A
C1400      C1401   1.410       .  A
C1401      C1403   1.412       .  A
C1401      C1402   1.411       .  A
C1402      C1410   1.403       .  A
C1403      C1412   1.399       .  A
C1403      C1404   1.402       .  A
C1404      C1405   1.396       .  A
C1404      H1415   1.084       .  S
C1405      C1406   1.403       .  A
C1405      H1416   1.084       .  S
C1406      C1407   1.397       .  A
C1407      C1408   1.407       .  A
C1407      H1417   1.084       .  S
C1408      C1409   1.405       .  A
C1409      H1418   1.084       .  S
C1410      C1411   1.405       .  A
C1410      H1419   1.084       .  S
C1411      C1412   1.403       .  A
C1412      H1420   1.085       .  S
C1421      C1422   1.397       .  A
C1421      C1426   1.402       .  A
C1421      H1437   1.084       .  S
C1422      C1423   1.403       .  A
C1422      H1438   1.084       .  S
C1423      C1433   1.400       .  A
C1423      C1424   1.410       .  A
C1424      C1430   1.412       .  A
C1424      C1425   1.414       .  A
C1425      C1427   1.412       .  A
C1425      C1426   1.413       .  A
C1426      C1434   1.401       .  A
C1427      C1436   1.407       .  A
C1427      C1428   1.405       .  A
C1428      C1429   1.402       .  A
C1428      H1439   1.084       .  S
C1429      C1430   1.405       .  A
C1429      H1440   1.083       .  S
C1430      C1431   1.409       .  A
C1431      C1432   1.411       .  A
C1431      H1441   1.084       .  S
C1432      C1433   1.409       .  A
C1433      H1442   1.084       .  S
C1434      C1435   1.402       .  A
C1434      H1443   1.084       .  S
C1435      C1436   1.406       .  A
C1436      H1444   1.084       .  S
C1445      C1446   1.398       .  A
C1445      C1450   1.404       .  A
C1445      H1461   1.084       .  S
C1446      C1447   1.402       .  A
C1446      H1462   1.083       .  S
C1447      C1457   1.405       .  A
C1447      C1448   1.415       .  A
C1448      C1454   1.407       .  A
C1448      C1449   1.407       .  A
C1449      C1451   1.415       .  A
C1449      C1450   1.409       .  A
C1450      C1458   1.397       .  A
C1451      C1460   1.399       .  A
C1451      C1452   1.401       .  A
C1452      C1453   1.395       .  A
C1452      H1463   1.084       .  S
C1453      C1454   1.403       .  A
C1453      H1464   1.084       .  S
C1454      C1455   1.392       .  A
C1455      C1456   1.409       .  A
C1455      H1465   1.084       .  S
C1456      C1457   1.402       .  A
C1457      H1466   1.084       .  S
C1458      C1459   1.404       .  A
C1458      H1467   1.084       .  S
C1459      C1460   1.399       .  A
C1460      H1468   1.085       .  S
C1469      C1470   1.397       .  A
C1469      C1474   1.402       .  A
C1469      H1485   1.084       .  S
C1470      C1471   1.404       .  A
C1470      H1486   1.084       .  S
C1471      C1481   1.396       .  A
C1471      C1472   1.408       .  A
C1472      C1478   1.414       .  A
C1472      C1473   1.408       .  A
C1473      C1475   1.410       .  A
C1473      C1474   1.414       .  A
C1474      C1482   1.402       .  A
C1475      C1484   1.398       .  A
C1475      C1476   1.403       .  A
C1476      C1477   1.398       .  A
C1476      H1487   1.083       .  S
C1477      C1478   1.402       .  A
C1477      H1488   1.083       .  S
C1478      C1479   1.403       .  A
C1479      C1480   1.402       .  A
C1479      H1489   1.084       .  S
C1480      C1481   1.408       .  A
C1481      H1490   1.084       .  S
C1482      C1483   1.402       .  A
C1482      H1491   1.085       .  S
C1483      C1484   1.404       .  A
C1484      H1492   1.084       .  S
C1493      C1494   1.400       .  A
C1493      C1498   1.404       .  A
C1493      H1509   1.084   1_655  S
C1494      C1495   1.404       .  A
C1494      H1510   1.084       .  S
C1495      C1505   1.405       .  A
C1495      C1496   1.412       .  A
C1496      C1502   1.409       .  A
C1496      C1497   1.410       .  A
C1497      C1499   1.413       .  A
C1497      C1498   1.412       .  A
C1498      C1506   1.402       .  A
C1499      C1508   1.399       .  A
C1499      C1500   1.401       .  A
C1500      C1501   1.396       .  A
C1500      H1511   1.084       .  S
C1501      C1502   1.403       .  A
C1501      H1512   1.084       .  S
C1502      C1503   1.397       .  A
C1503      C1504   1.407       .  A
C1503      H1513   1.084       .  S
C1504      C1505   1.409       .  A
C1505      H1514   1.084       .  S
C1506      C1507   1.404       .  A
C1506      H1515   1.084   1_655  S
C1507      C1508   1.400       .  A
C1508      H1516   1.084       .  S
C1517      C1518   1.396       .  A
C1517      C1522   1.403       .  A
C1517      H1533   1.084       .  S
C1518      C1519   1.402       .  A
C1518      H1534   1.084       .  S
C1519      C1529   1.400       .  A
C1519      C1520   1.413       .  A
C1520      C1526   1.410       .  A
C1520      C1521   1.409       .  A
C1521      C1523   1.413       .  A
C1521      C1522   1.409       .  A
C1522      C1530   1.395       .  A
C1523      C1532   1.405       .  A
C1523      C1524   1.403       .  A
C1524      C1525   1.399       .  A
C1524      H1535   1.084       .  S
C1525      C1526   1.404       .  A
C1525      H1536   1.084       .  S
C1526      C1527   1.401       .  A
C1527      C1528   1.407       .  A
C1527      H1537   1.084       .  S
C1528      C1529   1.402       .  A
C1529      H1538   1.084       .  S
C1530      C1531   1.408       .  A
C1530      H1539   1.084       .  S
C1531      C1532   1.407       .  A
C1532      H1540   1.084       .  S
C1541      C1542   1.395       .  A
C1541      C1546   1.403       .  A
C1541      H1557   1.084       .  S
C1542      C1543   1.401       .  A
C1542      H1558   1.084       .  S
C1543      C1553   1.399       .  A
C1543      C1544   1.413       .  A
C1544      C1550   1.410       .  A
C1544      C1545   1.410       .  A
C1545      C1547   1.414       .  A
C1545      C1546   1.408       .  A
C1546      C1554   1.394       .  A
C1547      C1556   1.407       .  A
C1547      C1548   1.404       .  A
C1548      C1549   1.401       .  A
C1548      H1559   1.084       .  S
C1549      C1550   1.405       .  A
C1549      H1560   1.084       .  S
C1550      C1551   1.403       .  A
C1551      C1552   1.409       .  A
C1551      H1561   1.084       .  S
C1552      C1553   1.403       .  A
C1553      H1562   1.084       .  S
C1554      C1555   1.409       .  A
C1554      H1563   1.084       .  S
C1555      C1556   1.407       .  A
C1556      H1564   1.084       .  S
