geometry optimzed in LAMMPS
_audit_creation_date              2020-12-01 
_audit_creation_method            'lammps2cif' 
_symmetry_space_group_name_H-M    'P1' 
_symmetry_Int_Tables_number       1 
_symmetry_cell_setting            triclinic 
loop_ 
_symmetry_equiv_pos_as_xyz 
  x,y,z 
_cell_length_a                    37.547904 
_cell_length_b                    37.57046548038979 
_cell_length_c                    68.28428943238522 
_cell_angle_alpha                 89.83317745558261 
_cell_angle_beta                  89.88157362258725 
_cell_angle_gamma                 90.03097532963221 
loop_ 
_atom_site_label 
_atom_site_type_symbol 
_atom_site_fract_x 
_atom_site_fract_y 
_atom_site_fract_z 
_atom_site_charge 
C1          C  0.43090466  0.30933715  0.34661904     0.80100
N2          N  0.45327787  0.33278732  0.33767643    -0.78300
C3          C  0.45394980  0.33538225  0.31784513     0.82500
N4          N  0.43252876  0.31428662  0.30693179    -0.78200
C5          C  0.40917328  0.29194909  0.31578004     0.82600
N6          N  0.40859119  0.28930238  0.33557254    -0.79900
C7          C  0.42238558  0.32726298  0.18303958     0.80100
N8          N  0.44731970  0.34530237  0.19350601    -0.78300
C9          C  0.45237156  0.33774302  0.21278358     0.82500
N10         N  0.43229002  0.31229001  0.22157883    -0.78200
C11         C  0.40665373  0.29506948  0.21133184     0.82600
N12         N  0.40185496  0.30246787  0.19210340    -0.79900
C13         C  0.20495740  0.33259849  0.34410804     0.80100
N14         N  0.17910631  0.35091894  0.33454886    -0.78300
C15         C  0.17137629  0.34364810  0.31557440     0.82500
N16         N  0.18948671  0.31761167  0.30602141    -0.78200
C17         C  0.21581761  0.29954808  0.31538064     0.82600
N18         N  0.22331710  0.30703899  0.33436104    -0.79900
C19         C  0.43098532  0.05765494  0.17932205     0.80100
N20         N  0.40863668  0.07981856  0.18920552    -0.78300
C21         C  0.40814361  0.08001526  0.20911734     0.82500
N22         N  0.43049245  0.05827669  0.21919885    -0.78200
C23         C  0.45198131  0.03522202  0.20947841     0.82600
N24         N  0.45236458  0.03521828  0.18961579    -0.79900
C25         C  0.48069317  0.35736293  0.30810402     0.42300
N26         N  0.02069142  0.37483816  0.28774400     0.01200
C27         C  0.12655941  0.02382433  0.28684573    -0.06700
H28         H  0.99200776  0.04604240  0.27897645     0.06700
C29         C  0.99356788  0.48124186  0.21489063    -0.07000
Co30       Co  0.05945121  0.44005954  0.30033353     0.74200
N31         N  0.02050560  0.50294278  0.28481679    -0.26200
Co32       Co  0.05885660  0.50210366  0.26267280     0.74100
C33         C  0.97932022  0.00963698  0.22199799     0.42400
N34         N  0.01943565  0.39481762  0.22989311     0.00800
N35         N  0.01924914  0.49995040  0.24126326     0.00900
N36         N  0.12286590  0.48598865  0.31203082    -0.47100
H37         H  0.99009819  0.40849622  0.32746394     0.06700
N38         N  0.02067746  0.47965039  0.29934228     0.01200
N39         N  0.09717283  0.49973894  0.24052089     0.00900
C40         C  0.13922012  0.51285449  0.22063445     0.42500
N41         N  0.02012848  0.37162732  0.24444752    -0.25700
C42         C  0.12523045  0.39535528  0.31296228    -0.06600
N43         N  0.99567277  0.35068747  0.29097081    -0.46800
N44         N  0.12257384  0.52342701  0.23713938    -0.47000
C45         C  0.14280599  0.36335485  0.30582558     0.42300
N46         N  0.09803018  0.47958300  0.29876441     0.01200
N47         N  0.09754138  0.37207043  0.24363108    -0.25700
N48         N  0.02105109  0.40007421  0.30114672    -0.26200
N49         N  0.09688361  0.39499865  0.22894280     0.00800
H50         H  0.13010966  0.32614600  0.24980602     0.06700
H51         H  0.12710476  0.46470609  0.20097507     0.06700
N52         N  0.09833502  0.50277656  0.28420361    -0.26200
N53         N  0.01933488  0.47452536  0.22794132    -0.25900
N54         N  0.09880898  0.37534626  0.28712386     0.01200
C55         C  0.98235081  0.01273491  0.30678299     0.42600
C56         C  0.99429701  0.34762761  0.24181419    -0.07100
N57         N  0.09631987  0.47436218  0.22718666    -0.25900
H58         H  0.98810689  0.46587339  0.20186753     0.06700
N59         N  0.99602544  0.48636428  0.31277966    -0.47100
H60         H  0.49091317  0.32129963  0.25116268     0.06700
C61         C  0.13961592  0.35950240  0.22199199     0.42400
C62         C  0.99547884  0.39317941  0.31440213    -0.06600
Co63       Co  0.05932674  0.37281863  0.26578553     0.73800
N64         N  0.99455542  0.38740897  0.21678778    -0.46800
C65         C  0.14129261  0.51442182  0.30549055     0.42700
N66         N  0.12497744  0.35220371  0.28984963    -0.46800
Co67       Co  0.05792472  0.43463996  0.22806833     0.73900
C68         C  0.12187529  0.48051498  0.21387707    -0.07100
C69         C  0.99777223  0.02316291  0.28808275    -0.06700
N70         N  0.09840494  0.40076547  0.30041945    -0.26200
N71         N  0.99669144  0.01992570  0.23830740    -0.47000
H72         H  0.13146458  0.04691607  0.27773380     0.06700
C73         C  0.12392838  0.34880002  0.24061433    -0.07100
Cl74       Cl  0.05885440  0.43743549  0.26420198    -0.50100
C75         C  0.48029959  0.35594126  0.22389605     0.42400
H76         H  0.13125070  0.41147538  0.32563026     0.06600
N77         N  0.12138198  0.38811602  0.21542153    -0.46800
C78         C  0.19376120  0.32103289  0.18169014     0.80100
N79         N  0.16986195  0.34186185  0.19143079    -0.78300
C80         C  0.16730333  0.33995994  0.21128517     0.82500
N81         N  0.18812437  0.31674730  0.22128375    -0.78200
C82         C  0.21242973  0.29651372  0.21177499     0.82600
N83         N  0.21501787  0.29854204  0.19203238    -0.79900
C84         C  0.41986258  0.04883253  0.34493602     0.80100
N85         N  0.40012652  0.07322030  0.33499826    -0.78300
C86         C  0.40444622  0.07724995  0.31541116     0.82500
N87         N  0.42872748  0.05726270  0.30580585    -0.78200
C88         C  0.95447548  0.03200059  0.31732638     0.82600
N89         N  0.44356366  0.02811804  0.33506769    -0.79900
C90         C  0.18750936  0.05661409  0.34714840     0.80100
N91         N  0.20959568  0.07982926  0.33776099    -0.78300
C92         C  0.21035368  0.08114109  0.31787050     0.82500
N93         N  0.18877328  0.05946732  0.30738277    -0.78200
C94         C  0.16760973  0.03545272  0.31662314     0.82600
N95         N  0.16668687  0.03438889  0.33645836    -0.79900
C96         C  0.20649933  0.04223876  0.18496802     0.80100
N97         N  0.22396318  0.06769748  0.19515949    -0.78300
C98         C  0.21573944  0.07388746  0.21413708     0.82500
N99         N  0.18979977  0.05456189  0.22303234    -0.78200
C100        C  0.17267300  0.02856715  0.21298898     0.82600
N101        N  0.18078936  0.02267014  0.19391328    -0.79900
C102        C  0.23554573  0.27122569  0.30541974     0.42300
N103        N  0.24715785  0.22722836  0.28666286     0.01200
C104        C  0.39652096  0.12071171  0.28627770    -0.06700
H105        H  0.42170615  0.25648346  0.27666084     0.06700
C106        C  0.35284712  0.25084618  0.21365982    -0.07000
Co107      Co  0.31186060  0.18751147  0.29948889     0.74200
N108        N  0.37500549  0.22495345  0.28303893    -0.26200
Co109      Co  0.37360001  0.18584671  0.26156930     0.74100
C110        C  0.38549825  0.26737011  0.22076698     0.42400
N111        N  0.26682956  0.22553668  0.22876442     0.00800
N112        N  0.37176556  0.22449951  0.23984429     0.00900
N113        N  0.35706909  0.12324391  0.31144427    -0.47100
H114        H  0.28410653  0.25962419  0.32495047     0.06700
N115        N  0.35187286  0.22534190  0.29760499     0.01200
N116        N  0.37121058  0.14674899  0.23992804     0.00900
C117        C  0.38573618  0.10563482  0.21971579     0.42500
N118        N  0.24385614  0.22589219  0.24342181    -0.25700
C119        C  0.26464538  0.12472165  0.31431507    -0.06600
N120        N  0.22403596  0.25336250  0.28953111    -0.46800
N121        N  0.39561782  0.12210918  0.23638163    -0.47000
C122        C  0.23185793  0.10793332  0.30767704     0.42300
N123        N  0.35074672  0.14818726  0.29815042     0.01200
N124        N  0.24346687  0.14823577  0.24409135    -0.25700
N125        N  0.27292529  0.22687463  0.29977404    -0.26200
N126        N  0.26668763  0.14788167  0.22953032     0.00800
H127        H  0.19903873  0.11427113  0.25161609     0.06700
H128        H  0.33791518  0.11804539  0.19975789     0.05500
N129        N  0.37373525  0.14752000  0.28348684    -0.26200
N130        N  0.34629695  0.22466159  0.22655141    -0.25900
N131        N  0.24606634  0.14923284  0.28748141     0.01200
C132        C  0.38781250  0.26769846  0.30404964     0.42600
C133        C  0.22113408  0.25288948  0.24085277    -0.07100
N134        N  0.34597374  0.14759550  0.22651271    -0.25900
H135        H  0.33714256  0.25701350  0.20083086     0.06700
N136        N  0.35901934  0.25007012  0.31077514    -0.47100
H137        H  0.19872173  0.25917557  0.25019454     0.06700
C138        C  0.23328795  0.10293194  0.22438843     0.42400
C139        C  0.26777587  0.25368712  0.31234333    -0.06600
Co140      Co  0.24432256  0.18761990  0.26539000     0.73800
N141        N  0.26044609  0.25087817  0.21567325    -0.46800
C142        C  0.38535154  0.10483821  0.30471564     0.42700
N143        N  0.22170467  0.12455975  0.29106898    -0.46800
Co144      Co  0.30624665  0.18644219  0.22735031     0.73900
C145        C  0.35303931  0.12269897  0.21297133    -0.07100
C146        C  0.39866549  0.25115070  0.28574078    -0.06700
N147        N  0.27151667  0.14973205  0.30076192    -0.26200
N148        N  0.39582982  0.24965476  0.23692429    -0.47000
H149        H  0.41905484  0.11432930  0.27704156     0.06700
C150        C  0.22121896  0.12062328  0.24209889    -0.07100
Cl151      Cl  0.30900820  0.18676864  0.26342609    -0.50100
C152        C  0.23228809  0.26939012  0.22258213     0.42400
H153        H  0.28021708  0.11955761  0.32732334     0.06600
N154        N  0.26131067  0.12129525  0.21723645    -0.46800
N155        N  0.30876851  0.44960455  0.54705608    -0.36800
N156        N  0.34828939  0.49051006  0.51837832    -0.57300
N157        N  0.31314019  0.44978930  0.48778685    -0.36800
N158        N  0.27686647  0.40579695  0.51620718    -0.57300
C159        C  0.33278907  0.46652850  0.55854170     0.26800
C160        C  0.29587733  0.42168934  0.55745741     0.26800
C161        C  0.33995858  0.46559150  0.47780493     0.26800
C162        C  0.30132048  0.42261527  0.47660315     0.26800
C163        C  0.35613431  0.51009246  0.53430118     0.35400
C164        C  0.35901277  0.50962489  0.50270947     0.35400
C165        C  0.25825538  0.39348129  0.53170379     0.35400
C166        C  0.25948942  0.39473894  0.50002679     0.35400
C167        C  0.33507040  0.44923519  0.57645209    -0.22100
C168        C  0.31169608  0.42110287  0.57581672    -0.22100
C169        C  0.34527396  0.44814590  0.46014512    -0.22100
C170        C  0.32081764  0.42105238  0.45938188    -0.22100
C171        C  0.38068558  0.04266737  0.52752634    -0.23100
C172        C  0.38194468  0.04176810  0.50741112    -0.23100
C173        C  0.22924365  0.37377280  0.52536291    -0.23100
C174        C  0.22993342  0.37474774  0.50519619    -0.23100
C175        C  0.35136011  0.49823135  0.55372292    -0.18500
C176        C  0.26841963  0.39827020  0.55139708    -0.18500
C177        C  0.27146398  0.40111946  0.48077533    -0.18500
C178        C  0.35752207  0.49725758  0.48332812    -0.18500
H179        H  0.35159321  0.45637838  0.58880412     0.14400
H180        H  0.30676999  0.40253011  0.58765419     0.14400
H181        H  0.36434188  0.45466393  0.44877991     0.14400
H182        H  0.31743469  0.40258876  0.44738929     0.14400
H183        H  0.39029018  0.06406362  0.53669138     0.12700
H184        H  0.39269001  0.06232200  0.49795748     0.12700
H185        H  0.20978073  0.36000658  0.53431950     0.12700
H186        H  0.21123778  0.36184075  0.49548111     0.12700
H187        H  0.29991296  0.45791764  0.53342929     0.26000
H188        H  0.30158695  0.45886461  0.50065280     0.26000
N189        N  0.06161736  0.19885249  0.04770919    -0.36800
N190        N  0.10321770  0.23493724  0.01702302    -0.57300
N191        N  0.06234072  0.19625918  0.98845143    -0.36800
N192        N  0.02431456  0.15642818  0.01874644    -0.57300
C193        C  0.08777551  0.21429185  0.05834147     0.26800
C194        C  0.04579600  0.17400287  0.05925434     0.26800
C195        C  0.08829339  0.21074662  0.97722853     0.26800
C196        C  0.04847125  0.16885710  0.97824756     0.26800
C197        C  0.11374636  0.25412674  0.03261723     0.35400
C198        C  0.11268481  0.25377348  0.00094992     0.35400
C199        C  0.00453264  0.14807396  0.03463446     0.35400
C200        C  0.00518535  0.14665866  0.00291699     0.35400
C201        C  0.08848952  0.19911782  0.07690100    -0.22100
C202        C  0.06208172  0.17375837  0.07746978    -0.22100
C203        C  0.09107436  0.19230963  0.95974461    -0.22100
C204        C  0.06606129  0.16571924  0.96042341    -0.22100
C205        C  0.13067223  0.28503171  0.02642667    -0.23100
C206        C  0.12989428  0.28483522  0.00627628    -0.23100
C207        C  0.47458547  0.13268573  0.02613655    -0.23100
C208        C  0.47604791  0.13300232  0.00600782    -0.23100
C209        C  0.10945880  0.24333114  0.05230076    -0.18500
C210        C  0.01573260  0.15300600  0.05419596    -0.18500
C211        C  0.01753009  0.14959744  0.98345964    -0.18500
C212        C  0.10731379  0.24206258  0.98162029    -0.18500
H213        H  0.10599414  0.20588082  0.08890685     0.14400
H214        H  0.05541152  0.15727740  0.08997789     0.14400
H215        H  0.10880868  0.19788573  0.94759834     0.14400
H216        H  0.06062860  0.14692820  0.94881761     0.14400
H217        H  0.14232455  0.30555310  0.03547720     0.12700
H218        H  0.14094526  0.30498953  0.99667001     0.12700
H219        H  0.45369047  0.12089451  0.03496492     0.12700
H220        H  0.45663453  0.12140945  0.99621575     0.12700
H221        H  0.05353999  0.20650455  0.03383314     0.26000
H222        H  0.05238078  0.20657021  0.00144264     0.26000
N223        N  0.06895814  0.19465959  0.48251165    -0.36800
N224        N  0.10463365  0.15189681  0.51260816    -0.57300
N225        N  0.06823898  0.19423592  0.54247693    -0.36800
N226        N  0.02968823  0.23418582  0.51243787    -0.57300
C227        C  0.08330143  0.16829510  0.47156140     0.26800
C228        C  0.04378338  0.21089364  0.47146378     0.26800
C229        C  0.08668025  0.17178178  0.55416227     0.26800
C230        C  0.04798473  0.21519869  0.55407992     0.26800
C231        C  0.12134960  0.13844841  0.49676414     0.35400
C232        C  0.12126104  0.13846114  0.52850245     0.35400
C233        C  0.01711104  0.25138643  0.49651850     0.35400
C234        C  0.01775369  0.25214236  0.52823880     0.35400
C235        C  0.06740599  0.16818989  0.45323597    -0.22100
C236        C  0.04257707  0.19497492  0.45317303    -0.22100
C237        C  0.07791106  0.17861189  0.57356948    -0.22100
C238        C  0.05370701  0.20590246  0.57351575    -0.22100
C239        C  0.14867110  0.11600552  0.50260211    -0.23100
C240        C  0.14848781  0.11587200  0.52273983    -0.23100
C241        C  0.49953350  0.27292230  0.50058956    -0.23100
C242        C  0.49998545  0.27366380  0.52074441    -0.23100
C243        C  0.11125620  0.14498171  0.47715599    -0.18500
C244        C  0.02253694  0.24047605  0.47696330    -0.18500
C245        C  0.02511480  0.24319800  0.54794134    -0.18500
C246        C  0.11203447  0.14590682  0.54814205    -0.18500
H247        H  0.07302627  0.15052820  0.44112020     0.14400
H248        H  0.02549639  0.20188952  0.44099253     0.14400
H249        H  0.08813007  0.16561488  0.58655777     0.14400
H250        H  0.04192975  0.21769024  0.58644232     0.14400
H251        H  0.16667244  0.10108069  0.49334899     0.12700
H252        H  0.16643111  0.10099494  0.53206199     0.12700
H253        H  0.48670790  0.29219134  0.49113741     0.12700
H254        H  0.48766204  0.29362305  0.52992529     0.12700
H255        H  0.07735270  0.20244381  0.49640706     0.26000
H256        H  0.06997726  0.19569737  0.52728468     0.26000
N257        N  0.32155491  0.44337513  0.98208467    -0.36800
N258        N  0.36611198  0.40838963  0.01127342    -0.57300
N259        N  0.32649354  0.44638199  0.04123283    -0.36800
N260        N  0.28555388  0.48498211  0.01231837    -0.57300
C261        C  0.34680300  0.42812217  0.97070111     0.26800
C262        C  0.30547673  0.46888415  0.97122657     0.26800
C263        C  0.35347203  0.43245964  0.05178522     0.26800
C264        C  0.31093464  0.47165912  0.05234561     0.26800
C265        C  0.37452183  0.38841203  0.99555750     0.35400
C266        C  0.37694142  0.38994723  0.02716510     0.35400
C267        C  0.26539332  0.49405042  0.99677791     0.35400
C268        C  0.26673270  0.49400231  0.02841360     0.35400
C269        C  0.34661266  0.44396545  0.95233299    -0.22100
C270        C  0.32061098  0.46970992  0.95267490    -0.22100
C271        C  0.35529323  0.44934301  0.06981894    -0.22100
C272        C  0.32841238  0.47413793  0.07015838    -0.22100
C273        C  0.39150792  0.35742679  0.00143880    -0.23100
C274        C  0.39304400  0.35841330  0.02155969    -0.23100
C275        C  0.23053473  0.02273938  0.00375550    -0.23100
C276        C  0.23337813  0.02398992  0.02384859    -0.23100
C277        C  0.36845128  0.39878819  0.97599369    -0.18500
C278        C  0.27593370  0.48979063  0.97709955    -0.18500
C279        C  0.27887622  0.48934027  0.04773991    -0.18500
C280        C  0.37325837  0.40195925  0.04657137    -0.18500
H281        H  0.36329468  0.43744716  0.93990283     0.14400
H282        H  0.31338562  0.48682814  0.94054107     0.14400
H283        H  0.37326759  0.44353747  0.08177782     0.14400
H284        H  0.32166051  0.49115373  0.08238132     0.14400
H285        H  0.40175241  0.33641644  0.99219775     0.12700
H286        H  0.40466802  0.33832700  0.03096878     0.12700
H287        H  0.20933948  0.03419678  0.99506730     0.12700
H288        H  0.21478488  0.03654598  0.03379540     0.12700
H289        H  0.31406565  0.43514313  0.99604656     0.26000
H290        H  0.31685915  0.43657245  0.02804579     0.26000
C291        C  0.44923133  0.31432001  0.84537282     0.80100
N292        N  0.47115465  0.33614942  0.83495907    -0.78300
C293        C  0.47025652  0.33645016  0.81511433     0.82500
N294        N  0.44686691  0.31524188  0.80554800    -0.78200
C295        C  0.42565725  0.29260048  0.81575330     0.82600
N296        N  0.42665248  0.29240101  0.83561599    -0.79900
C297        C  0.45383427  0.09017476  0.84600463     0.80100
N298        N  0.47423069  0.06528243  0.83681819    -0.78300
C299        C  0.46939522  0.05868541  0.81746429     0.82500
N300        N  0.44432824  0.07688584  0.80735493    -0.78200
C301        C  0.42460265  0.10219377  0.81625009     0.82600
N302        N  0.42931070  0.10881045  0.83556050    -0.79900
C303        C  0.18860216  0.08114740  0.84674502     0.80100
N304        N  0.20989609  0.10207416  0.83547342    -0.78300
C305        C  0.20876988  0.10004083  0.81568511     0.82500
N306        N  0.18632364  0.07674803  0.80700320    -0.78200
C307        C  0.16385200  0.05670316  0.81803376     0.82600
N308        N  0.16516845  0.05870164  0.83789310    -0.79900
C309        C  0.17032927  0.30225012  0.84470258     0.80100
N310        N  0.15205606  0.32812145  0.83519235    -0.78300
C311        C  0.15900404  0.33559168  0.81614259     0.82500
N312        N  0.18510966  0.31743906  0.80655749    -0.78200
C313        C  0.20331947  0.29107038  0.81591290     0.82600
N314        N  0.19578821  0.28355641  0.83498949    -0.79900
C315        C  0.17358819  0.08849885  0.68413001     0.80100
N316        N  0.19937344  0.10823897  0.69276997    -0.78300
C317        C  0.20631934  0.10403678  0.71210543     0.82500
N318        N  0.18790403  0.07962954  0.72274154    -0.78200
C319        C  0.16163918  0.06041517  0.71420452     0.82600
N320        N  0.15447164  0.06494125  0.69492329    -0.79900
C321        C  0.45167951  0.08068787  0.68115145     0.80100
N322        N  0.47361690  0.05932849  0.69181254    -0.78300
C323        C  0.47176113  0.05864680  0.71168352     0.82500
N324        N  0.44771880  0.07961707  0.72103620    -0.78200
C325        C  0.42681925  0.10232494  0.71062533     0.82600
N326        N  0.42871576  0.10258683  0.69075551    -0.79900
C327        C  0.39867552  0.27181505  0.80554030     0.42300
N328        N  0.35486780  0.26038437  0.78663984     0.01200
C329        C  0.25120298  0.10900804  0.78576283    -0.06700
H330        H  0.38817076  0.08706902  0.77756192     0.06700
C331        C  0.38240788  0.15622963  0.71356150    -0.07000
Co332      Co  0.31570867  0.19517584  0.79921876     0.74200
N333        N  0.35540468  0.13299010  0.78348303    -0.26200
Co334      Co  0.31728470  0.13394993  0.76150217     0.74100
C335        C  0.39985450  0.12394186  0.72067160     0.42400
N336        N  0.35515524  0.24228770  0.72848469     0.00800
N337        N  0.35678251  0.13705001  0.73997600     0.00900
N338        N  0.25228624  0.14883051  0.81059341    -0.47100
H339        H  0.38648834  0.22364819  0.82533332     0.06700
N340        N  0.35463348  0.15603645  0.79802414     0.01200
N341        N  0.27884692  0.13636515  0.73979522     0.00900
C342        C  0.23510351  0.12401877  0.72117255     0.42500
N343        N  0.35471919  0.26533554  0.74305847    -0.25700
C344        C  0.24989903  0.23938063  0.81257535    -0.06600
N345        N  0.38113121  0.28328876  0.78950309    -0.46800
N346        N  0.25297291  0.11301309  0.73713278    -0.47000
C347        C  0.23222497  0.27174203  0.80588268     0.42300
N348        N  0.27742931  0.15551967  0.79749656     0.01200
N349        N  0.27709865  0.26378729  0.74342251    -0.25700
N350        N  0.35418889  0.23477488  0.79990587    -0.26200
N351        N  0.27762320  0.24116092  0.72866067     0.00800
H352        H  0.24330977  0.30828030  0.75057908     0.06700
H353        H  0.24583541  0.17254233  0.70133083     0.06700
N354        N  0.27779465  0.13234543  0.78301095    -0.26200
N355        N  0.35628482  0.16248205  0.72657191    -0.25900
N356        N  0.27633383  0.26039590  0.78680667     0.01200
C357        C  0.39729998  0.12092841  0.80513082     0.42600
C358        C  0.38035055  0.28959102  0.73997182    -0.07100
N359        N  0.27891755  0.16199243  0.72653932    -0.25900
H360        H  0.38793337  0.17184665  0.70057373     0.06700
N361        N  0.37907008  0.14951274  0.81150845    -0.47100
H362        H  0.38565104  0.31252268  0.74905274     0.06700
C363        C  0.23321742  0.27518495  0.72289921     0.42400
C364        C  0.38071409  0.23997991  0.81266207    -0.06600
Co365      Co  0.31581373  0.26327763  0.76503177     0.73800
N366        N  0.37965525  0.24985765  0.71508273    -0.46800
C367        C  0.23436761  0.12023519  0.80398171     0.42700
N368        N  0.25013868  0.28345557  0.78991487    -0.46800
Co369      Co  0.31706142  0.20202861  0.72707847     0.73900
C370        C  0.25223516  0.15627548  0.71393350    -0.07100
C371        C  0.38182509  0.10979152  0.78661104    -0.06700
N372        N  0.27666702  0.23440871  0.79983603    -0.26200
N373        N  0.38237569  0.11341884  0.73695856    -0.47000
H374        H  0.24558522  0.08611806  0.77670677     0.06700
C375        C  0.24974009  0.28612723  0.74113225    -0.07100
Cl376      Cl  0.31655465  0.19861992  0.76318838    -0.50100
C377        C  0.39667257  0.27928090  0.72144191     0.42400
H378        H  0.24395353  0.22272809  0.82511141     0.06600
N379        N  0.25211276  0.24754831  0.71571601    -0.46800
C380        C  0.45771629  0.30886647  0.68180418     0.80100
N381        N  0.43137656  0.29124208  0.69154608    -0.78300
C382        C  0.42482624  0.29837153  0.71073338     0.82500
N383        N  0.44429589  0.32359623  0.72006024    -0.78200
C384        C  0.47094479  0.34093038  0.71054723     0.82600
N385        N  0.47779012  0.33331603  0.69145965    -0.79900
C386        C  0.18594850  0.31969475  0.68242060     0.80100
N387        N  0.20712006  0.29651277  0.69229490    -0.78300
C388        C  0.20666459  0.29579479  0.71215006     0.82500
N389        N  0.18531740  0.31857103  0.72209746    -0.78200
C390        C  0.16342241  0.34112959  0.71236600     0.82600
N391        N  0.16425210  0.34214273  0.69251309    -0.79900
C392        C  0.13922419  0.36436788  0.80647860     0.42300
N393        N  0.12770054  0.40890158  0.78796515     0.01200
C394        C  0.47880710  0.01472864  0.78892412    -0.06700
H395        H  0.45688022  0.37482419  0.77693298     0.06700
C396        C  0.02317614  0.38771037  0.71487943    -0.07000
Co397      Co  0.06319709  0.44907186  0.80098004     0.74200
N398        N  0.99973678  0.41235811  0.78447038    -0.26200
Co399      Co  0.50196858  0.44828160  0.76319345     0.74100
C400        C  0.49139776  0.36857464  0.72074749     0.42400
N401        N  0.10862211  0.41130349  0.72997737     0.00800
N402        N  0.00354206  0.41345907  0.74105403     0.00900
N403        N  0.01856139  0.01390205  0.81267912    -0.47100
H404        H  0.09087257  0.37599332  0.82630823     0.06700
N405        N  0.02268386  0.41152335  0.79909248     0.01200
N406        N  0.50439609  0.48854694  0.74205724     0.00900
C407        C  0.49335040  0.03286206  0.72275715     0.42500
N408        N  0.13132128  0.41023602  0.74470943    -0.25700
C409        C  0.10952759  0.01256933  0.81557774    -0.06600
N410        N  0.15063598  0.38252623  0.79062107    -0.46800
N411        N  0.48237826  0.01586374  0.73918063    -0.47000
C412        C  0.14186869  0.02985587  0.80842127     0.42300
N413        N  0.02440469  0.48879487  0.79982632     0.01200
N414        N  0.13354000  0.48761036  0.74515818    -0.25700
N415        N  0.10200794  0.40926646  0.80118261    -0.26200
N416        N  0.11059020  0.48855301  0.73054244     0.00800
H417        H  0.17694084  0.02201969  0.75259384     0.06700
H418        H  0.03875058  0.01817311  0.70133905     0.06700
N419        N  0.50054874  0.48581463  0.78566191    -0.26200
N420        N  0.02932209  0.41358834  0.72788705    -0.25900
N421        N  0.12939030  0.48696684  0.78866266     0.01200
C422        C  0.98625019  0.36935529  0.80535561     0.42600
C423        C  0.15392295  0.38319818  0.74195190    -0.07100
N424        N  0.03111702  0.49095528  0.72840434    -0.25900
H425        H  0.03933698  0.38182691  0.70216524     0.06700
N426        N  0.01520977  0.38649744  0.81215998    -0.47100
H427        H  0.17631125  0.37658499  0.75121256     0.06700
C428        C  0.14292416  0.03290190  0.72523434     0.42400
C429        C  0.10714997  0.38211493  0.81365124    -0.06600
Co430      Co  0.13114387  0.44847973  0.76667185     0.73800
N431        N  0.11521958  0.38660591  0.71660497    -0.46800
C432        C  0.48914392  0.03074814  0.80736795     0.42700
N433        N  0.15206194  0.01281932  0.79202761    -0.46800
Co434      Co  0.06993605  0.45114085  0.72875531     0.73900
C435        C  0.02327499  0.01359501  0.71448557    -0.07100
C436        C  0.47930218  0.38068595  0.78630692    -0.06700
N437        N  0.10390586  0.48666251  0.80201020    -0.26200
N438        N  0.48051671  0.38522611  0.73720337    -0.47000
H439        H  0.45629717  0.02057567  0.77959485     0.06700
C440        C  0.15451792  0.01582675  0.74328624    -0.07100
Cl441      Cl  0.06653567  0.45017672  0.76486237    -0.50100
C442        C  0.14314082  0.36763008  0.72341850     0.42400
H443        H  0.09389100  0.01809578  0.82853616     0.06600
N444        N  0.11478528  0.01457128  0.71836172    -0.46800
C445        C  0.19470790  0.07861272  0.86820611    -0.20000
C446        C  0.22873453  0.08490222  0.87640202     0.36200
C447        C  0.23520102  0.07609137  0.89600618    -0.26000
C448        C  0.20844376  0.06128251  0.90780835     0.02600
C449        C  0.17362115  0.05802298  0.90028424     0.27400
C450        C  0.16721857  0.06618124  0.88046115    -0.25100
N451        N  0.25751453  0.09832703  0.86470344    -0.82500
H452        H  0.26193509  0.07910342  0.90173736     0.13200
C453        C  0.21862434  0.04643535  0.92720357     0.02600
N454        N  0.14515944  0.04583365  0.91270971    -0.81100
H455        H  0.14084472  0.06209872  0.87445833     0.18000
C456        C  0.23737015  0.06781338  0.94052201    -0.25900
C457        C  0.25286078  0.05314013  0.95735130     0.36100
C458        C  0.25480997  0.50742314  0.96149229    -0.20000
C459        C  0.23508528  0.48603969  0.94870512    -0.25200
C460        C  0.21938811  0.50051298  0.93188678     0.27500
H461        H  0.24152435  0.09577155  0.93729223     0.13200
N462        N  0.27477096  0.07549726  0.96927759    -0.82500
H463        H  0.23365802  0.45756609  0.95120653     0.18100
N464        N  0.20297512  0.47726925  0.91797218    -0.81100
H465        H  0.26420352  0.07611767  0.98341875     0.33700
H466        H  0.30030143  0.06444685  0.96990635     0.38200
H467        H  0.22196389  0.45868432  0.91341427     0.33700
H468        H  0.18249643  0.46347044  0.92509281     0.30400
H469        H  0.14172211  0.06475664  0.92375051     0.33700
H470        H  0.12521152  0.53021086  0.90523914     0.30400
H471        H  0.27819024  0.07970436  0.86496645     0.38200
H472        H  0.26677307  0.12178499  0.87114769     0.33700
C473        C  0.44489771  0.31977679  0.86677271    -0.20000
C474        C  0.42999231  0.29353776  0.87922557     0.36200
C475        C  0.42132253  0.30240269  0.89868628    -0.26000
C476        C  0.42642248  0.33709623  0.90580195     0.02600
C477        C  0.44228196  0.36293303  0.89349242     0.27400
C478        C  0.45202963  0.35374696  0.87435362    -0.25100
N479        N  0.42315421  0.25826672  0.87202844    -0.82500
H480        H  0.40972683  0.28240383  0.90822311     0.13200
C481        C  0.41298714  0.34710680  0.92556631     0.02600
N482        N  0.44688479  0.39895885  0.90012808    -0.81100
H483        H  0.46313620  0.37416420  0.86491646     0.18000
C484        C  0.43533444  0.36586533  0.93842427    -0.25900
C485        C  0.42167167  0.38221660  0.95520686     0.36100
C486        C  0.38529535  0.37815295  0.95994477    -0.20000
C487        C  0.36353775  0.35715360  0.94797330    -0.25200
C488        C  0.37690667  0.34201920  0.93071788     0.27500
H489        H  0.46317823  0.36965868  0.93476172     0.13200
N490        N  0.44471338  0.40456673  0.96647887    -0.82500
H491        H  0.33553250  0.35414913  0.95149839     0.18100
N492        N  0.35323809  0.32334788  0.91792011    -0.81100
H493        H  0.44562401  0.39483988  0.98080507     0.33700
H494        H  0.43390223  0.43021445  0.96674739     0.38200
H495        H  0.34212414  0.30209412  0.92574443     0.33700
H496        H  0.33262135  0.34062520  0.91398600     0.30400
H497        H  0.45910864  0.41457840  0.88934976     0.33700
H498        H  0.42155108  0.40975918  0.90241590     0.30400
H499        H  0.44770777  0.24676645  0.86855308     0.38200
H500        H  0.41172841  0.24238666  0.88296162     0.33700
C501        C  0.16822850  0.09037817  0.66289966    -0.20000
C502        C  0.19707970  0.08639168  0.64985296     0.36200
C503        C  0.19092088  0.08841183  0.62962636    -0.26000
C504        C  0.15666797  0.09508635  0.62232616     0.02600
C505        C  0.12768844  0.09828852  0.63546886     0.27400
C506        C  0.13375049  0.09521407  0.65565299    -0.25100
N507        N  0.23240518  0.08019466  0.65721026    -0.82500
H508        H  0.21299225  0.08562458  0.61949762     0.13200
C509        C  0.15182577  0.10236549  0.60116742     0.02600
N510        N  0.09247010  0.10580040  0.62831282    -0.81100
H511        H  0.11171901  0.09789432  0.66582608     0.18000
C512        C  0.12576194  0.08358312  0.59070551    -0.25900
C513        C  0.11439989  0.09556816  0.57237374     0.36100
C514        C  0.13027179  0.12607062  0.56400724    -0.20000
C515        C  0.15906347  0.14237487  0.57341511    -0.25200
C516        C  0.16974107  0.13115150  0.59211753     0.27500
H517        H  0.11234557  0.06112674  0.59746273     0.13200
N518        N  0.08513390  0.07788505  0.56313339    -0.82500
H519        H  0.17096906  0.16591137  0.56692813     0.18100
N520        N  0.19689575  0.15042364  0.60247391    -0.81100
H521        H  0.06425880  0.09605348  0.56150992     0.33700
H522        H  0.09334619  0.06983265  0.54919877     0.38200
H523        H  0.20746163  0.17068765  0.59369717     0.33700
H524        H  0.18481463  0.16287582  0.61444817     0.30400
H525        H  0.07423698  0.10711689  0.63988574     0.33700
H526        H  0.09300984  0.13107116  0.62186746     0.30400
H527        H  0.24572870  0.63394980  0.65353806     0.38200
H528        H  0.25667299  0.59117067  0.64871239     0.33700
C529        C  0.00832832  0.26468262  0.56366160    -0.20000
C530        C  0.02650185  0.29346323  0.57246403     0.36200
C531        C  0.51409647  0.29496864  0.58997866    -0.26000
C532        C  0.48618641  0.27785361  0.60002234     0.02600
C533        C  0.46720143  0.25038444  0.59052155     0.27400
C534        C  0.47760159  0.23968273  0.57163251    -0.25100
N535        N  0.05846762  0.30850744  0.56424160    -0.82500
H536        H  0.52835556  0.31652973  0.59698637     0.13200
C537        C  0.47913544  0.28696332  0.62095142     0.02600
N538        N  0.43905439  0.23181518  0.60056760    -0.81100
H539        H  0.46432278  0.21735498  0.56476875     0.18000
C540        C  0.44440325  0.29537604  0.62708363    -0.25900
C541        C  0.43670557  0.30235500  0.64690127     0.36100
C542        C  0.46447462  0.30174255  0.66080609    -0.20000
C543        C  0.49929661  0.29429394  0.65464121    -0.25200
C544        C  0.50681277  0.28606977  0.63498006     0.27500
H545        H  0.42320161  0.29639967  0.61635901     0.13200
N546        N  0.40091383  0.31046744  0.65291881    -0.82500
H547        H  0.52052442  0.29369903  0.66536798     0.18100
N548        N  0.03994124  0.28316010  0.62936988    -0.81100
H549        H  0.38360413  0.30958991  0.64095074     0.33700
H550        H  0.40069258  0.33669072  0.65799736     0.38200
H551        H  0.05662314  0.28100714  0.64155319     0.33700
H552        H  0.03745322  0.25752870  0.62358983     0.30400
H553        H  0.42800113  0.21222840  0.59158399     0.33700
H554        H  0.45036283  0.21850751  0.61250160     0.30400
H555        H  0.06510160  0.29670011  0.55090808     0.38200
H556        H  0.05329418  0.33526510  0.56113561     0.33700
C557        C  0.12137079  0.26288121  0.96477378    -0.20000
C558        C  0.15670767  0.25862259  0.95838304     0.36200
C559        C  0.16674935  0.27108378  0.93977053    -0.26000
C560        C  0.14172433  0.28713978  0.92733726     0.02600
C561        C  0.10670136  0.29306562  0.93409043     0.27400
C562        C  0.09698197  0.28114247  0.95288079    -0.25100
N563        N  0.18164058  0.23936628  0.97017659    -0.82500
H564        H  0.19351126  0.26606172  0.93448641     0.13200
C565        C  0.15061082  0.29152434  0.90636255     0.02600
N566        N  0.08047458  0.30842238  0.92128252    -0.81100
H567        H  0.06962008  0.28376799  0.95775296     0.18000
C568        C  0.14785454  0.26166127  0.89415498    -0.25900
C569        C  0.15531998  0.26407739  0.87401326     0.36100
C570        C  0.16469700  0.29733907  0.86592755    -0.20000
C571        C  0.16777987  0.32714355  0.87819949    -0.25200
C572        C  0.16148783  0.32444160  0.89845673     0.27500
H573        H  0.13976501  0.23637274  0.90042714     0.13200
N574        N  0.15211002  0.23328867  0.86169207    -0.82500
H575        H  0.17555149  0.35254006  0.87194252     0.18100
N576        N  0.16716721  0.35454993  0.91102769    -0.81100
H577        H  0.14343319  0.21131608  0.86985231     0.33700
H578        H  0.17758577  0.22691700  0.85661729     0.38200
H579        H  0.17623739  0.37641159  0.90291258     0.33700
H580        H  0.14267920  0.36195240  0.91700960     0.30400
H581        H  0.05562098  0.30935171  0.92820224     0.33700
H582        H  0.08774528  0.33480298  0.91856572     0.30400
H583        H  0.19051487  0.21743576  0.96213222     0.38200
H584        H  0.20349275  0.25593234  0.97275577     0.33700
C585        C  0.99650298  0.13527035  0.96684624    -0.20000
C586        C  0.50086887  0.10615836  0.95943701     0.36200
C587        C  0.48772225  0.09581102  0.94110842    -0.26000
C588        C  0.47429457  0.12122403  0.92792379     0.02600
C589        C  0.47157432  0.15716645  0.93379413     0.27400
C590        C  0.98162901  0.16065327  0.95419477    -0.25100
N591        N  0.51791412  0.08065087  0.97189005    -0.82500
H592        H  0.49016553  0.06826803  0.93662515     0.13200
C593        C  0.46846206  0.11093768  0.90730876     0.02600
N594        N  0.96566708  0.18218584  0.92184926    -0.81100
H595        H  0.97927100  0.18802278  0.95904375     0.18000
C596        C  0.43450448  0.11400239  0.89904847    -0.25900
C597        C  0.42911444  0.10745319  0.87908361     0.36100
C598        C  0.45804665  0.09667097  0.86722583    -0.20000
C599        C  0.49174651  0.09230195  0.87573805    -0.25200
C600        C  0.49739173  0.09992871  0.89558938     0.27500
H601        H  0.41213836  0.12193254  0.90808753     0.13200
N602        N  0.39413935  0.11141885  0.87101750    -0.82500
H603        H  0.51405333  0.08412811  0.86672303     0.18100
N604        N  0.53253173  0.09734348  0.90382429    -0.81100
H605        H  0.38585597  0.13763421  0.87337099     0.33700
H606        H  0.37686382  0.09452912  0.87867701     0.38200
H607        H  0.55081629  0.08877779  0.89328966     0.33700
H608        H  0.04769947  0.11419176  0.90830537     0.30400
H609        H  0.98590281  0.20124010  0.92282953     0.33700
H610        H  0.43294505  0.17935577  0.91701319     0.30400
H611        H  0.49959079  0.06046463  0.97499000     0.38200
H612        H  0.53912862  0.06940713  0.96411132     0.33700
C613        C  0.36899583  0.51818604  0.56980402    -0.20000
C614        C  0.35836021  0.04030917  0.58281382     0.36200
C615        C  0.37564641  0.05652531  0.59859337    -0.26000
C616        C  0.41280380  0.05435521  0.60076385     0.02600
C617        C  0.43311590  0.03746640  0.58602445     0.27400
C618        C  0.40615258  0.51640427  0.57168230    -0.25100
N619        N  0.32043942  0.04355028  0.58136675    -0.82500
H620        H  0.35968739  0.06935550  0.60976625     0.13200
C621        C  0.42904380  0.06479943  0.61982662     0.02600
N622        N  0.47131482  0.03676490  0.58733486    -0.81100
H623        H  0.42151746  0.50227652  0.56073378     0.18000
C624        C  0.44814417  0.03898862  0.63030804    -0.25900
C625        C  0.45778993  0.04414068  0.64995612     0.36100
C626        C  0.44844687  0.07634865  0.65946956    -0.20000
C627        C  0.43173532  0.10331642  0.64842654    -0.25200
C628        C  0.42192773  0.09788098  0.62874661     0.27500
H629        H  0.43985846  0.50579182  0.62628850     0.13200
N630        N  0.47483401  0.01564848  0.66046342    -0.82500
H631        H  0.42505694  0.12832380  0.65538529     0.18100
N632        N  0.40385973  0.12537645  0.61797267    -0.81100
H633        H  0.46593774  0.48667513  0.65434017     0.33700
H634        H  0.45614156  0.00516320  0.67027843     0.38200
H635        H  0.40035071  0.14798036  0.62667482     0.33700
H636        H  0.42037981  0.13293133  0.60634422     0.30400
H637        H  0.48226431  0.02314170  0.57543064     0.33700
H638        H  0.48032074  0.06305151  0.58633278     0.30400
H639        H  0.30589068  0.55352897  0.56861302     0.38200
H640        H  0.30905131  0.01822407  0.58215831     0.33700
C641        C  0.19299671  0.32648749  0.66157860    -0.20000
C642        C  0.19137025  0.29939836  0.64738177     0.36200
C643        C  0.20075715  0.30734552  0.62785925    -0.26000
C644        C  0.21262989  0.34156212  0.62262981     0.02600
C645        C  0.21568755  0.36806714  0.63715038     0.27400
C646        C  0.20495355  0.36048811  0.65633427    -0.25100
N647        N  0.18016898  0.26416501  0.65285684    -0.82500
H648        H  0.19878616  0.28696441  0.61672215     0.13200
C649        C  0.22204246  0.35020877  0.60206236     0.02600
N650        N  0.23047849  0.40237212  0.63239379    -0.81100
H651        H  0.20732270  0.38083799  0.66748289     0.18000
C652        C  0.20558317  0.37972162  0.59326910    -0.25900
C653        C  0.21916164  0.39463074  0.57598264     0.36100
C654        C  0.24884217  0.37878569  0.56693724    -0.20000
C655        C  0.26308250  0.34713880  0.57454532    -0.25200
C656        C  0.25025129  0.33285960  0.59227516     0.27500
H657        H  0.18357652  0.39261912  0.60069637     0.13200
N658        N  0.20452734  0.42711116  0.56826421    -0.82500
H659        H  0.28593774  0.33520586  0.56741899     0.18100
N660        N  0.26700147  0.30219139  0.60087747    -0.81100
H661        H  0.18349694  0.43600828  0.57703679     0.33700
H662        H  0.19367268  0.42141523  0.55454719     0.38200
H663        H  0.28723574  0.29265076  0.59175064     0.33700
H664        H  0.27927459  0.31032595  0.61384463     0.30400
H665        H  0.23097307  0.41877454  0.64473376     0.33700
H666        H  0.25699917  0.39847987  0.62820506     0.30400
H667        H  0.15364357  0.26575619  0.65746353     0.38200
H668        H  0.18060085  0.24730132  0.64070624     0.33700
C669        C  0.25657013  0.50152401  0.06434528    -0.20000
C670        C  0.23909311  0.47651091  0.07649437     0.36200
C671        C  0.22387909  0.48762240  0.09408514    -0.26000
C672        C  0.23256454  0.03134953  0.10221161     0.02600
C673        C  0.25380680  0.05615536  0.09188383     0.27400
C674        C  0.26619751  0.04754685  0.07305226    -0.25100
N675        N  0.23737825  0.43949429  0.07155753    -0.82500
H676        H  0.21268103  0.46780045  0.10388347     0.13200
C677        C  0.22501827  0.03566963  0.12330028     0.02600
N678        N  0.26383407  0.08916664  0.10092762    -0.81100
H679        H  0.28425088  0.06537149  0.06544121     0.18000
C680        C  0.25384862  0.03890224  0.13620134    -0.25900
C681        C  0.24844574  0.04020811  0.15647903     0.36100
C682        C  0.21349178  0.03815970  0.16393428    -0.20000
C683        C  0.18464587  0.03437034  0.15108163    -0.25200
C684        C  0.19005053  0.03337103  0.13075680     0.27500
H685        H  0.28074574  0.03959444  0.13041609     0.13200
N686        N  0.27830471  0.04297353  0.16954140    -0.82500
H687        H  0.15778793  0.03316915  0.15689123     0.18100
N688        N  0.16030128  0.03026046  0.11765056    -0.81100
H689        H  0.30207959  0.04418714  0.16167700     0.33700
H690        H  0.27923612  0.01952034  0.17787438     0.38200
H691        H  0.13640267  0.02878578  0.12550472     0.33700
H692        H  0.15919330  0.05360092  0.10930271     0.30400
H693        H  0.27984804  0.10420559  0.09148014     0.33700
H694        H  0.24055091  0.10384077  0.10322478     0.30400
H695        H  0.22569271  0.43719209  0.05773535     0.38200
H696        H  0.26319336  0.42923306  0.07085486     0.33700
C697        C  0.18112235  0.06008011  0.36844581    -0.20000
C698        C  0.20867087  0.06858220  0.38166752     0.36200
C699        C  0.20004705  0.07715481  0.40117734    -0.26000
C700        C  0.16451156  0.07718491  0.40765097     0.02600
C701        C  0.13729516  0.06737171  0.39458145     0.27400
C702        C  0.14584112  0.05843010  0.37525555    -0.25100
N703        N  0.24510419  0.06892024  0.37517831    -0.82500
H704        H  0.22094061  0.08481188  0.41124863     0.13200
C705        C  0.15559496  0.09203644  0.42714336     0.02600
N706        N  0.10069721  0.06863992  0.40052784    -0.81100
H707        H  0.12437600  0.05233451  0.36521697     0.18000
C708        C  0.16396076  0.12776009  0.43087635    -0.25900
C709        C  0.15126040  0.14472864  0.44772963     0.36100
C710        C  0.13004243  0.12575563  0.46118214    -0.20000
C711        C  0.12342454  0.08943629  0.45810539    -0.25200
C712        C  0.13615012  0.07241303  0.44118460     0.27500
H713        H  0.17896588  0.14304448  0.42019260     0.13200
N714        N  0.15874259  0.18166567  0.45084471    -0.82500
H715        H  0.10718772  0.07469059  0.46846161     0.18100
N716        N  0.12883507  0.03543625  0.43811357    -0.81100
H717        H  0.14882949  0.19600643  0.43889370     0.33700
H718        H  0.18638536  0.18491177  0.45112586     0.38200
H719        H  0.13952418  0.02115969  0.44987447     0.33700
H720        H  0.10120980  0.03190030  0.43833247     0.30400
H721        H  0.08737577  0.08659954  0.39139822     0.33700
H722        H  0.08960969  0.04342179  0.39836750     0.30400
H723        H  0.25173270  0.04292824  0.37112211     0.38200
H724        H  0.26206085  0.07575027  0.38669819     0.33700
C725        C  0.41693528  0.04602756  0.36643045    -0.20000
C726        C  0.41262426  0.07648320  0.37824033     0.36200
C727        C  0.41025480  0.07275759  0.39860531    -0.26000
C728        C  0.41131429  0.03906068  0.40743180     0.02600
C729        C  0.41480347  0.00841881  0.39561370     0.27400
C730        C  0.41861861  0.01234506  0.37526662    -0.25100
N731        N  0.41103952  0.11129316  0.36966502    -0.82500
H732        H  0.40689989  0.09628683  0.40757241     0.13200
C733        C  0.40423521  0.03597169  0.42868588     0.02600
N734        N  0.42179348  0.47598036  0.40769917    -0.81100
H735        H  0.42145391  0.98891375  0.36617698     0.18000
C736        C  0.37195356  0.04937738  0.43593978    -0.25900
C737        C  0.36004872  0.04012684  0.45461554     0.36100
C738        C  0.37444092  0.51804108  0.46743346    -0.20000
C739        C  0.40995152  0.51108083  0.46243859    -0.25200
C740        C  0.42694320  0.01668120  0.44124913     0.27500
H741        H  0.35451062  0.06459571  0.42645900     0.13200
N742        N  0.32526424  0.05136605  0.46064978    -0.82500
H743        H  0.42650168  0.49567561  0.47230242     0.18100
N744        N  0.46092070  0.00444447  0.43448727    -0.81100
H745        H  0.30942733  0.02885483  0.46300867     0.33700
H746        H  0.31864631  0.56306429  0.47318320     0.38200
H747        H  0.46794576  0.52563156  0.42656809     0.33700
H748        H  0.46144250  0.97668911  0.43576636     0.30400
H749        H  0.40343634  0.45849891  0.40141347     0.33700
H750        H  0.44736409  0.46629949  0.40480168     0.30400
H751        H  0.38679800  0.12289911  0.37369024     0.38200
H752        H  0.43155721  0.12662545  0.37561516     0.33700
C753        C  0.12795776  0.26375010  0.06784281    -0.20000
C754        C  0.16512801  0.26150783  0.07043046     0.36200
C755        C  0.18063047  0.27707261  0.08705911    -0.26000
C756        C  0.15943810  0.29365764  0.10134938     0.02600
C757        C  0.12243470  0.29717897  0.09823605     0.27400
C758        C  0.10722000  0.28272275  0.08130880    -0.25100
N759        N  0.18665655  0.24236090  0.05658155    -0.82500
H760        H  0.20903526  0.27456232  0.08947056     0.13200
C761        C  0.17504298  0.30271849  0.12064403     0.02600
N762        N  0.10017301  0.31368764  0.11276648    -0.81100
H763        H  0.07867602  0.28433821  0.07913965     0.18000
C764        C  0.17144342  0.33732591  0.12811841    -0.25900
C765        C  0.17969737  0.34487029  0.14777684     0.36100
C766        C  0.19173508  0.31716480  0.16010540    -0.20000
C767        C  0.19831927  0.28340406  0.15204098    -0.25200
C768        C  0.18970188  0.27574854  0.13255425     0.27500
H769        H  0.16080685  0.35811139  0.11878238     0.13200
N770        N  0.17531508  0.38026843  0.15532210    -0.82500
H771        H  0.20785031  0.26201856  0.16132039     0.18100
N772        N  0.19392897  0.24016453  0.12516071    -0.81100
H773        H  0.16619586  0.39745430  0.14435888     0.33700
H774        H  0.20050555  0.38948521  0.15941511     0.38200
H775        H  0.20539596  0.22358535  0.13573495     0.33700
H776        H  0.16853532  0.22996347  0.12237038     0.30400
H777        H  0.07364742  0.31430409  0.10813355     0.33700
H778        H  0.10081107  0.29770447  0.12531991     0.30400
H779        H  0.21348542  0.24327690  0.06062748     0.38200
H780        H  0.17902464  0.21561150  0.05717503     0.33700
C781        C  0.99587493  0.13460255  0.07028122    -0.20000
C782        C  0.47452944  0.15452965  0.08195239     0.36200
C783        C  0.45979899  0.13645052  0.09801670    -0.26000
C784        C  0.46421365  0.09955123  0.10019949     0.02600
C785        C  0.98150126  0.07941742  0.08761374     0.27400
C786        C  0.99635029  0.09726874  0.07142626    -0.25100
N787        N  0.47055240  0.19232872  0.08026569    -0.82500
H788        H  0.44631645  0.15156427  0.10931187     0.13200
C789        C  0.45394362  0.08280336  0.11912506     0.02600
N790        N  0.98270710  0.04135747  0.08863902    -0.81100
H791        H  0.00932756  0.08201635  0.06001445     0.18000
C792        C  0.41901453  0.08651016  0.12621760    -0.25900
C793        C  0.41003062  0.07611292  0.14544882     0.36100
C794        C  0.43671191  0.06229514  0.15791145    -0.20000
C795        C  0.47100874  0.05646935  0.15027688    -0.25200
C796        C  0.47989080  0.06693027  0.13118002     0.27500
H797        H  0.39897762  0.09843898  0.11687790     0.13200
N798        N  0.37410699  0.07987679  0.15241513    -0.82500
H799        H  0.49186723  0.04586202  0.15955054     0.18100
N800        N  0.01795438  0.06538019  0.12773738    -0.81100
H801        H  0.36460697  0.05429553  0.15549955     0.33700
H802        H  0.35774861  0.09027995  0.14143887     0.38200
H803        H  0.03329862  0.08011954  0.13757983     0.33700
H804        H  0.02624373  0.03885740  0.12851494     0.30400
H805        H  0.96955356  0.03127516  0.07636264     0.33700
H806        H  0.00936526  0.03347489  0.08782063     0.30400
H807        H  0.44330475  0.19811294  0.07997013     0.38200
H808        H  0.48135715  0.20399984  0.09278990     0.33700
C809        C  0.25217968  0.38603758  0.46372297    -0.20000
C810        C  0.23181811  0.40872759  0.45170368     0.36200
C811        C  0.22121144  0.39708485  0.43309329    -0.26000
C812        C  0.23002325  0.36289443  0.42635673     0.02600
C813        C  0.24844791  0.33934880  0.43900206     0.27400
C814        C  0.25956039  0.35128893  0.45754334    -0.25100
N815        N  0.22376753  0.44425531  0.45810725    -0.82500
H816        H  0.20752990  0.41544522  0.42344250     0.13200
C817        C  0.22254647  0.35345939  0.40553735     0.02600
N818        N  0.25670329  0.30380425  0.43272384    -0.81100
H819        H  0.27551657  0.33413228  0.46680446     0.18000
C820        C  0.25038374  0.34041103  0.39380102    -0.25900
C821        C  0.24535766  0.33296110  0.37384128     0.36100
C822        C  0.21181998  0.33955281  0.36518198    -0.20000
C823        C  0.18398396  0.35274135  0.37690541    -0.25200
C824        C  0.18881119  0.35930031  0.39698840     0.27500
H825        H  0.27654949  0.33677685  0.40014928     0.13200
N826        N  0.27445597  0.31941158  0.36234498    -0.82500
H827        H  0.15804699  0.35736678  0.37045968     0.18100
N828        N  0.15952295  0.37164659  0.40874235    -0.81100
H829        H  0.29695941  0.31528853  0.37105193     0.33700
H830        H  0.28131856  0.33894935  0.35207601     0.38200
H831        H  0.13661904  0.37477023  0.40021982     0.33700
H832        H  0.15383107  0.35187635  0.41908734     0.30400
H833        H  0.27071142  0.29010650  0.44360197     0.33700
H834        H  0.23260771  0.29032302  0.43079754     0.30400
H835        H  0.20746658  0.44215142  0.47049153     0.38200
H836        H  0.20899131  0.45782538  0.44748895     0.33700
C837        C  0.41829987  0.33374495  0.16183436    -0.20000
C838        C  0.41236179  0.30547296  0.14857825     0.36200
C839        C  0.40841932  0.31297930  0.12852678    -0.26000
C840        C  0.41033306  0.34802549  0.12152593     0.02600
C841        C  0.41528462  0.37616864  0.13485673     0.27400
C842        C  0.41995674  0.36876405  0.15479143    -0.25100
N843        N  0.41087448  0.26928405  0.15545177    -0.82500
H844        H  0.40402401  0.29144993  0.11828113     0.13200
C845        C  0.40477141  0.35528079  0.10043867     0.02600
N846        N  0.41417939  0.41240657  0.12829046    -0.81100
H847        H  0.42380803  0.39062251  0.16489628     0.18000
C848        C  0.37267265  0.34479260  0.09171751    -0.25900
C849        C  0.36355710  0.35699251  0.07306503     0.36100
C850        C  0.38691602  0.38005609  0.06292665    -0.20000
C851        C  0.42056475  0.38747168  0.07072721    -0.25200
C852        C  0.42977613  0.37494259  0.08940655     0.27500
H853        H  0.35365965  0.32889824  0.09990517     0.13200
N854        N  0.32971890  0.34706711  0.06508252    -0.82500
H855        H  0.43871134  0.40484805  0.06287005     0.18100
N856        N  0.46409276  0.38295746  0.09738419    -0.81100
H857        H  0.31464539  0.37004731  0.06273655     0.33700
H858        H  0.33414516  0.33482741  0.05155675     0.38200
H859        H  0.48337690  0.37243219  0.08797963     0.33700
H860        H  0.46717284  0.41061335  0.09750750     0.30400
H861        H  0.39351773  0.42529407  0.13571698     0.33700
H862        H  0.43811201  0.42463849  0.13223824     0.30400
H863        H  0.43604246  0.26277816  0.16090865     0.38200
H864        H  0.40591214  0.25184653  0.14386061     0.33700
C865        C  0.43525333  0.30156172  0.36770728    -0.20000
C866        C  0.43508818  0.26613956  0.37469578     0.36200
C867        C  0.44478858  0.25904539  0.39408210    -0.26000
C868        C  0.45451490  0.28661090  0.40677160     0.02600
C869        C  0.45292058  0.32219213  0.40020840     0.27400
C870        C  0.44365294  0.32931794  0.38063295    -0.25100
N871        N  0.42722019  0.23702502  0.36189335    -0.82500
H872        H  0.44630798  0.23162103  0.39899264     0.13200
C873        C  0.46953696  0.27713254  0.42613307     0.02600
N874        N  0.46125151  0.35076955  0.41337249    -0.81100
H875        H  0.44359733  0.35653563  0.37533588     0.18000
C876        C  0.00432900  0.29539815  0.43141453    -0.25900
C877        C  0.02178695  0.28211906  0.44793623     0.36100
C878        C  0.00334689  0.25971487  0.46110263    -0.20000
C879        C  0.46772203  0.24205058  0.45609640    -0.25200
C880        C  0.45042218  0.25551058  0.43942513     0.27500
H881        H  0.01956870  0.31064025  0.42082756     0.13200
N882        N  0.05844047  0.29125377  0.45085893    -0.82500
H883        H  0.45367393  0.22431909  0.46599314     0.18100
N884        N  0.41385610  0.24663885  0.43561699    -0.81100
H885        H  0.07361932  0.26796968  0.45085397     0.33700
H886        H  0.06081277  0.30324984  0.46459676     0.38200
H887        H  0.40371232  0.23031817  0.44673343     0.33700
H888        H  0.39921056  0.27028768  0.43601104     0.30400
H889        H  0.45876975  0.37533617  0.40627316     0.33700
H890        H  0.44218794  0.35043838  0.42455904     0.30400
H891        H  0.44934364  0.22014086  0.36152840     0.38200
H892        H  0.40583252  0.22279894  0.36785596     0.33700
C893        C  0.42863677  0.81474132  0.34667473     0.80100
N894        N  0.45047637  0.83789073  0.33707746    -0.78300
C895        C  0.45171967  0.83826583  0.31719116     0.82500
N896        N  0.43135270  0.81522402  0.30685607    -0.78200
C897        C  0.40855435  0.79298854  0.31624422     0.82600
N898        N  0.40737181  0.79269390  0.33610217    -0.79900
C899        C  0.42159183  0.82447066  0.18213974     0.80100
N900        N  0.44593978  0.84376015  0.19232956    -0.78300
C901        C  0.45148654  0.83710400  0.21163964     0.82500
N902        N  0.43259523  0.81113510  0.22081700    -0.78200
C903        C  0.40753723  0.79248706  0.21090997     0.82600
N904        N  0.40211010  0.79919955  0.19161132    -0.79900
C905        C  0.20696118  0.82778310  0.34596388     0.80100
N906        N  0.18071277  0.84593192  0.33653221    -0.78300
C907        C  0.17269826  0.83846032  0.31755108     0.82500
N908        N  0.19069909  0.81230599  0.30804273    -0.78200
C909        C  0.21721094  0.79438083  0.31730419     0.82600
N910        N  0.22525032  0.80223074  0.33617658    -0.79900
C911        C  0.43164076  0.55200109  0.18220654     0.80100
N912        N  0.40929151  0.57444992  0.19183665    -0.78300
C913        C  0.40874302  0.57521339  0.21173212     0.82500
N914        N  0.43098735  0.55375520  0.22206601    -0.78200
C915        C  0.45246451  0.53041250  0.21256730     0.82600
N916        N  0.45295431  0.52988559  0.19271350    -0.79900
C917        C  0.47782275  0.86040495  0.30691474     0.42300
N918        N  0.02395847  0.87137165  0.28814304     0.01200
C919        C  0.12515079  0.52576618  0.28707818    -0.06700
H920        H  0.98826068  0.54916534  0.27876583     0.06700
C921        C  0.99669092  0.97738227  0.21490902    -0.07000
Co922      Co  0.06285874  0.93677711  0.30063368     0.74200
N923        N  0.02352041  0.99932467  0.28491778    -0.26200
Co924      Co  0.06153798  0.99844174  0.26280500     0.74100
C925        C  0.97677295  0.51385115  0.22181624     0.42400
N926        N  0.02280607  0.89137151  0.23001860     0.00800
N927        N  0.02205207  0.99602928  0.24137788     0.00900
N928        N  0.12577712  0.98454298  0.31207540    -0.47100
H929        H  0.99382750  0.90523362  0.32792612     0.06700
N930        N  0.02397080  0.97631259  0.29957396     0.01200
N931        N  0.10013440  0.99616815  0.24100563     0.00900
C932        C  0.14409361  0.00842872  0.22233436     0.42500
N933        N  0.02309014  0.86814346  0.24457646    -0.25700
C934        C  0.12757561  0.89123018  0.31403808    -0.06600
N935        N  0.99885746  0.84732745  0.29142948    -0.46800
N936        N  0.12619300  0.01938463  0.23831314    -0.47000
C937        C  0.14453355  0.85851078  0.30745304     0.42300
N938        N  0.10124885  0.97677707  0.29883002     0.01200
N939        N  0.10089294  0.86874321  0.24411126    -0.25700
N940        N  0.02455079  0.89662551  0.30155251    -0.26200
N941        N  0.10026722  0.89163035  0.22940254     0.00800
H942        H  0.13394778  0.82331510  0.25053344     0.06700
H943        H  0.13307521  0.96020338  0.20249940     0.06700
N944        N  0.10075976  0.99976107  0.28417720    -0.26200
N945        N  0.02255155  0.97081778  0.22795641    -0.25900
N946        N  0.10202056  0.87161399  0.28778543     0.01200
C947        C  0.97816002  0.51525514  0.30633293     0.42600
C948        C  0.99648780  0.84483928  0.24190639    -0.07100
N949        N  0.09993692  0.97071550  0.22773114    -0.25900
H950        H  0.99134583  0.96201786  0.20186943     0.06700
N951        N  0.99987634  0.98361814  0.31321623    -0.47100
H952        H  0.48957802  0.82352003  0.25006432     0.06700
C953        C  0.14347774  0.85671105  0.22273609     0.42400
C954        C  0.99912585  0.88980898  0.31489416    -0.06600
Co955      Co  0.06251034  0.86923832  0.26616411     0.73800
N956        N  0.99757858  0.88475127  0.21698526    -0.46800
C957        C  0.14304792  0.01358622  0.30525329     0.42700
N958        N  0.12731671  0.84772278  0.29114931    -0.46800
Co959      Co  0.06135677  0.93108692  0.22832330     0.73900
C960        C  0.12676731  0.97634469  0.21512806    -0.07100
C961        C  0.99422234  0.52632501  0.28786331    -0.06700
N962        N  0.10168119  0.89727002  0.30096466    -0.26200
N963        N  0.99424704  0.52417937  0.23808603    -0.47000
H964        H  0.13121161  0.54867647  0.27803740     0.06700
C965        C  0.12762349  0.84584248  0.24127670    -0.07100
Cl966      Cl  0.06201402  0.93385580  0.26449224    -0.50100
C967        C  0.47853466  0.85696164  0.22247747     0.42400
H968        H  0.13302624  0.90714599  0.32686111     0.06600
N969        N  0.12502598  0.88500425  0.21600387    -0.46800
C970        C  0.19453779  0.81515366  0.18231592     0.80100
N971        N  0.17192253  0.83734562  0.19204241    -0.78300
C972        C  0.17048797  0.83663944  0.21194997     0.82500
N973        N  0.19112947  0.81342495  0.22201058    -0.78200
C974        C  0.21417539  0.79190311  0.21249297     0.82600
N975        N  0.21562062  0.79254898  0.19268346    -0.79900
C976        C  0.42042342  0.54623833  0.34643091     0.80100
N977        N  0.40106775  0.57004856  0.33589820    -0.78300
C978        C  0.40671248  0.57409058  0.31644459     0.82500
N979        N  0.43184577  0.55430034  0.30740838    -0.78200
C980        C  0.95071707  0.53474656  0.31717474     0.82600
N981        N  0.44512619  0.52567850  0.33713150    -0.79900
C982        C  0.18662574  0.55418480  0.34820703     0.80100
N983        N  0.21021888  0.57646578  0.33911672    -0.78300
C984        C  0.21193459  0.57779809  0.31918457     0.82500
N985        N  0.18963875  0.55739487  0.30838910    -0.78200
C986        C  0.16684543  0.53452759  0.31724298     0.82600
N987        N  0.16525998  0.53313501  0.33707583    -0.79900
C988        C  0.20084373  0.54657018  0.18253575     0.80100
N989        N  0.21975829  0.57080524  0.19300804    -0.78300
C990        C  0.21272746  0.57603706  0.21228580     0.82500
N991        N  0.18636050  0.55731773  0.22113351    -0.78200
C992        C  0.16767674  0.53275298  0.21093595     0.82600
N993        N  0.17489483  0.52743157  0.19168203    -0.79900
C994        C  0.23685556  0.76612477  0.30725758     0.42300
N995        N  0.24906733  0.72286889  0.28809130     0.01200
C996        C  0.39966618  0.61836191  0.28734549    -0.06700
H997        H  0.42215008  0.75633012  0.27746751     0.06700
C998        C  0.35438487  0.74754710  0.21425512    -0.07000
Co999      Co  0.31433462  0.68409666  0.30069938     0.74200
N1000       N  0.37682035  0.72308375  0.28423252    -0.26200
Co1001     Co  0.37603465  0.68386914  0.26271354     0.74100
C1002       C  0.38703320  0.76464291  0.22091449     0.42400
N1003       N  0.26883654  0.72188511  0.22997474     0.00800
N1004       N  0.37371496  0.72250607  0.24076131     0.00900
N1005       N  0.35968017  0.62004369  0.31224707    -0.47100
H1006       H  0.28567857  0.75482433  0.32661168     0.06700
N1007       N  0.35386811  0.72284240  0.29890410     0.01200
N1008       N  0.37365182  0.64450420  0.24122801     0.00900
C1009       C  0.38694350  0.60165848  0.22194762     0.42500
N1010       N  0.24580988  0.72212235  0.24462246    -0.25700
C1011       C  0.26721923  0.62087050  0.31564441    -0.06600
N1012       N  0.22552277  0.74852932  0.29122423    -0.46800
N1013       N  0.39750795  0.61916220  0.23815000    -0.47000
C1014       C  0.23437643  0.60401044  0.30902121     0.42300
N1015       N  0.35365588  0.64543587  0.29919602     0.01200
N1016       N  0.24558031  0.64469500  0.24484446    -0.25700
N1017       N  0.27488185  0.72265397  0.30117460    -0.26200
N1018       N  0.26873210  0.64467700  0.23024718     0.00800
H1019       H  0.19876106  0.61319046  0.25095693     0.06700
H1020       H  0.33880432  0.61313087  0.20206092     0.05500
N1021       N  0.37687489  0.64529955  0.28464573    -0.26200
N1022       N  0.34814313  0.72190569  0.22753401    -0.25900
N1023       N  0.24904125  0.64486984  0.28855130     0.01200
C1024       C  0.38849375  0.76657932  0.30506662     0.42600
C1025       C  0.22275104  0.74878782  0.24186744    -0.07100
N1026       N  0.34816536  0.64473414  0.22794328    -0.25900
H1027       H  0.33855501  0.75289512  0.20136317     0.06700
N1028       N  0.36031975  0.74806866  0.31194498    -0.47100
H1029       H  0.20010894  0.75486346  0.25108580     0.06700
C1030       C  0.23250599  0.60267849  0.22341639     0.42400
C1031       C  0.26937827  0.74898772  0.31397835    -0.06600
Co1032     Co  0.24665531  0.68357627  0.26654519     0.73800
N1033       N  0.26224796  0.74685389  0.21674001    -0.46800
C1034       C  0.38804803  0.60177810  0.30555224     0.42700
N1035       N  0.22461707  0.62033056  0.29224088    -0.46800
Co1036     Co  0.30838257  0.68328147  0.22851181     0.73900
C1037       C  0.35449831  0.61876378  0.21495320    -0.07100
C1038       C  0.39960340  0.75013616  0.28675509    -0.06700
N1039       N  0.27435381  0.64563349  0.30192964    -0.26200
N1040       N  0.39762482  0.74772062  0.23734379    -0.47000
H1041       H  0.42221803  0.61206436  0.27810655     0.06700
C1042       C  0.22177358  0.61872368  0.24189078    -0.07100
Cl1043     Cl  0.31132819  0.68363110  0.26460193    -0.50100
C1044       C  0.23387197  0.76506840  0.22349504     0.42400
H1045       H  0.28246080  0.61613699  0.32882009     0.06600
N1046       N  0.26159571  0.62017040  0.21690870    -0.46800
N1047       N  0.31833585  0.95076980  0.54712506    -0.36800
N1048       N  0.35718478  0.99072717  0.51780448    -0.57300
N1049       N  0.32067301  0.94917778  0.48749524    -0.36800
N1050       N  0.28544929  0.90592747  0.51661478    -0.57300
C1051       C  0.34213227  0.96849753  0.55842130     0.26800
C1052       C  0.30519149  0.92352024  0.55795045     0.26800
C1053       C  0.34563143  0.96632511  0.47676429     0.26800
C1054       C  0.30693452  0.92320924  0.47606244     0.26800
C1055       C  0.36522408  0.01092509  0.53350168     0.35400
C1056       C  0.36706727  0.00959042  0.50186506     0.35400
C1057       C  0.26769380  0.89358641  0.53244785     0.35400
C1058       C  0.26792237  0.89381508  0.50065863     0.35400
C1059       C  0.34404256  0.95240698  0.57665831    -0.22100
C1060       C  0.32062526  0.92430322  0.57644079    -0.22100
C1061       C  0.34764080  0.95108081  0.45827445    -0.22100
C1062       C  0.32321406  0.92399475  0.45783344    -0.22100
C1063       C  0.37231812  0.54175459  0.52874971    -0.23100
C1064       C  0.37415571  0.54143619  0.50862580    -0.23100
C1065       C  0.23922465  0.87268028  0.52649914    -0.23100
C1066       C  0.23923298  0.87306448  0.50633504    -0.23100
C1067       C  0.36074633  0.99995831  0.55312377    -0.18500
C1068       C  0.27781434  0.89963114  0.55213969    -0.18500
C1069       C  0.27842005  0.90035756  0.48108987    -0.18500
C1070       C  0.36443620  0.99727736  0.48246373    -0.18500
H1071       H  0.36021180  0.96043230  0.58898731     0.14400
H1072       H  0.31544842  0.90683165  0.58872373     0.14400
H1073       H  0.36436648  0.95909055  0.44611922     0.14400
H1074       H  0.31772409  0.90713312  0.44537184     0.14400
H1075       H  0.38230474  0.56254742  0.53820637     0.12700
H1076       H  0.38585946  0.56186748  0.49943899     0.12700
H1077       H  0.22041172  0.85858066  0.53571170     0.12700
H1078       H  0.22048845  0.85945064  0.49694543     0.12700
H1079       H  0.30970554  0.95815808  0.53334453     0.26000
H1080       H  0.31176854  0.95654315  0.50119927     0.26000
N1081       N  0.05897159  0.69593601  0.04749534    -0.36800
N1082       N  0.09868453  0.73460188  0.01737256    -0.57300
N1083       N  0.05734301  0.69756385  0.98809588    -0.36800
N1084       N  0.02118905  0.65515705  0.01787983    -0.57300
C1085       C  0.08536485  0.71073561  0.05825591     0.26800
C1086       C  0.04381150  0.67004330  0.05858559     0.26800
C1087       C  0.08324819  0.71257640  0.97702997     0.26800
C1088       C  0.04299924  0.67105561  0.97733851     0.26800
C1089       C  0.11035102  0.75241306  0.03320520     0.35400
C1090       C  0.10866911  0.75384529  0.00157776     0.35400
C1091       C  0.00254589  0.64455344  0.03377220     0.35400
C1092       C  0.00201919  0.64523979  0.00210092     0.35400
C1093       C  0.08681245  0.69416664  0.07642472    -0.22100
C1094       C  0.06065325  0.66853680  0.07662655    -0.22100
C1095       C  0.08523198  0.69544888  0.95907701    -0.22100
C1096       C  0.05998626  0.66913535  0.95932593    -0.22100
C1097       C  0.12834770  0.78298305  0.02745251    -0.23100
C1098       C  0.12725475  0.78388736  0.00731452    -0.23100
C1099       C  0.47224678  0.62888243  0.02850115    -0.23100
C1100       C  0.47429449  0.62788789  0.00837425    -0.23100
C1101       C  0.10686061  0.74012871  0.05264302    -0.18500
C1102       C  0.01392797  0.64903279  0.05331069    -0.18500
C1103       C  0.01288034  0.65063822  0.98257053    -0.18500
C1104       C  0.10342538  0.74287868  0.98212185    -0.18500
H1105       H  0.10470832  0.70010145  0.08838794     0.14400
H1106       H  0.05457321  0.65092791  0.08875464     0.14400
H1107       H  0.10269575  0.70145335  0.94689106     0.14400
H1108       H  0.05430323  0.65103210  0.94742694     0.14400
H1109       H  0.14133155  0.80227633  0.03677136     0.12700
H1110       H  0.13926884  0.80390812  0.99797560     0.12700
H1111       H  0.44983649  0.62039569  0.03735340     0.12700
H1112       H  0.45387847  0.61823887  0.99856162     0.12700
H1113       H  0.05036581  0.70445273  0.03395236     0.26000
H1114       H  0.04811770  0.70661532  0.00141343     0.26000
N1115       N  0.05392969  0.68298847  0.48369361    -0.36800
N1116       N  0.09462712  0.64613489  0.51323609    -0.57300
N1117       N  0.06010246  0.69114613  0.54249769    -0.36800
N1118       N  0.01567977  0.72467207  0.51325967    -0.57300
C1119       C  0.06777073  0.65563467  0.47328647     0.26800
C1120       C  0.02620328  0.69610541  0.47333935     0.26800
C1121       C  0.07535669  0.66571652  0.55372813     0.26800
C1122       C  0.03516459  0.70738116  0.55366149     0.26800
C1123       C  0.11237651  0.63442552  0.49730868     0.35400
C1124       C  0.11513107  0.63835967  0.52884893     0.35400
C1125       C  0.00457532  0.74162871  0.49693638     0.35400
C1126       C  0.00830913  0.74641533  0.52847050     0.35400
C1127       C  0.04845790  0.65118201  0.45618761    -0.22100
C1128       C  0.02217993  0.67670558  0.45622883    -0.22100
C1129       C  0.05984104  0.66570069  0.57219175    -0.22100
C1130       C  0.03444040  0.69195669  0.57213676    -0.22100
C1131       C  0.14414015  0.61856328  0.50283330    -0.23100
C1132       C  0.14584503  0.62099187  0.52292218    -0.23100
C1133       C  0.49266470  0.78906768  0.50385141    -0.23100
C1134       C  0.49566779  0.79063642  0.52389799    -0.23100
C1135       C  0.09913145  0.63659068  0.47803831    -0.18500
C1136       C  0.00716081  0.72754434  0.47783550    -0.18500
C1137       C  0.01546813  0.73791836  0.54822042    -0.18500
C1138       C  0.10508728  0.64478154  0.54839693    -0.18500
H1139       H  0.05327139  0.63197323  0.44469835     0.14400
H1140       H  0.00288234  0.68114531  0.44472438     0.14400
H1141       H  0.06662103  0.64895491  0.58456126     0.14400
H1142       H  0.01780107  0.69934214  0.58443556     0.14400
H1143       H  0.16380557  0.60628105  0.49342327     0.12700
H1144       H  0.16700342  0.61085319  0.53211750     0.12700
H1145       H  0.48107478  0.80928505  0.49451457     0.12700
H1146       H  0.48686115  0.81230434  0.53312578     0.12700
H1147       H  0.06469067  0.69416862  0.49622081     0.26000
H1148       H  0.06836471  0.69898194  0.52863930     0.26000
N1149       N  0.31147759  0.94930305  0.98250454    -0.36800
N1150       N  0.35241504  0.90970148  0.01191990    -0.57300
N1151       N  0.31865136  0.95214812  0.04136585    -0.36800
N1152       N  0.28109189  0.99490639  0.01223353    -0.57300
C1153       C  0.33670646  0.93331508  0.97142125     0.26800
C1154       C  0.29755560  0.97610263  0.97163564     0.26800
C1155       C  0.34393946  0.93519219  0.05189649     0.26800
C1156       C  0.30808000  0.98050524  0.05195224     0.26800
C1157       C  0.35964086  0.88993264  0.99598845     0.35400
C1158       C  0.36100181  0.88968128  0.02766383     0.35400
C1159       C  0.26020065  0.00448044  0.99705746     0.35400
C1160       C  0.26459069  0.00633402  0.02859964     0.35400
C1161       C  0.33875176  0.95018798  0.95333345    -0.22100
C1162       C  0.31393667  0.97703242  0.95344334    -0.22100
C1163       C  0.34976632  0.95314606  0.06930756    -0.22100
C1164       C  0.32709798  0.98181537  0.06934303    -0.22100
C1165       C  0.37343614  0.85720570  0.00157859    -0.23100
C1166       C  0.37420107  0.85701762  0.02176746    -0.23100
C1167       C  0.23388632  0.50964098  0.00299413    -0.23100
C1168       C  0.23471158  0.50953521  0.02312527    -0.23100
C1169       C  0.35616221  0.90236698  0.97658535    -0.18500
C1170       C  0.26904002  0.99845196  0.97727500    -0.18500
C1171       C  0.27819003  0.00178677  0.04763653    -0.18500
C1172       C  0.35892856  0.90193805  0.04709811    -0.18500
H1173       H  0.35606187  0.94357991  0.94118252     0.14400
H1174       H  0.30849705  0.99514151  0.94146025     0.14400
H1175       H  0.36767167  0.94573889  0.08103298     0.14400
H1176       H  0.32401726  0.00069256  0.08116363     0.14400
H1177       H  0.38236509  0.83595423  0.99209711     0.12700
H1178       H  0.38387848  0.83567121  0.03100487     0.12700
H1179       H  0.21261890  0.52004151  0.99396533     0.12700
H1180       H  0.21424583  0.51985632  0.03273656     0.12700
H1181       H  0.30259832  0.94090745  0.99613763     0.26000
H1182       H  0.30659812  0.94285676  0.02872922     0.26000
C1183       C  0.44802359  0.82039876  0.84737198     0.80100
N1184       N  0.47030874  0.84158361  0.83682602    -0.78300
C1185       C  0.47064830  0.84007145  0.81699339     0.82500
N1186       N  0.44804562  0.81774653  0.80757115    -0.78200
C1187       C  0.42649013  0.79568371  0.81798366     0.82600
N1188       N  0.42631773  0.79731923  0.83781629    -0.79900
C1189       C  0.45439323  0.58552980  0.84744330     0.80100
N1190       N  0.47384884  0.56048424  0.83772319    -0.78300
C1191       C  0.46884128  0.55537198  0.81820183     0.82500
N1192       N  0.44455451  0.57527727  0.80848555    -0.78200
C1193       C  0.42584061  0.60081849  0.81788987     0.82600
N1194       N  0.43073891  0.60588958  0.83733401    -0.79900
C1195       C  0.19045908  0.57644747  0.84826328     0.80100
N1196       N  0.21145160  0.59875704  0.83760457    -0.78300
C1197       C  0.21041358  0.59858733  0.81777771     0.82500
N1198       N  0.18830650  0.57573767  0.80842370    -0.78200
C1199       C  0.16605379  0.55438782  0.81884417     0.82600
N1200       N  0.16731981  0.55458911  0.83874861    -0.79900
C1201       C  0.17097381  0.80412715  0.84591505     0.80100
N1202       N  0.15200930  0.82898212  0.83602101    -0.78300
C1203       C  0.16011844  0.83693924  0.81715791     0.82500
N1204       N  0.18731008  0.81952176  0.80805988    -0.78200
C1205       C  0.20578597  0.79382021  0.81784292     0.82600
N1206       N  0.19776470  0.78654208  0.83681386    -0.79900
C1207       C  0.18228920  0.58491819  0.68324968     0.80100
N1208       N  0.20656152  0.60530971  0.69275639    -0.78300
C1209       C  0.21221791  0.60079455  0.71220102     0.82500
N1210       N  0.19357408  0.57577729  0.72223686    -0.78200
C1211       C  0.16852403  0.55606575  0.71297961     0.82600
N1212       N  0.16288566  0.56067686  0.69352788    -0.79900
C1213       C  0.44524037  0.57718185  0.68228478     0.80100
N1214       N  0.46833305  0.55649848  0.69253633    -0.78300
C1215       C  0.46912268  0.55751607  0.71237808     0.82500
N1216       N  0.44664052  0.57948706  0.72214286    -0.78200
C1217       C  0.42473999  0.60164307  0.71204472     0.82600
N1218       N  0.42386819  0.60022732  0.69217146    -0.79900
C1219       C  0.40007051  0.77380020  0.80790091     0.42300
N1220       N  0.35628436  0.76131401  0.78913077     0.01200
C1221       C  0.25272832  0.60963379  0.78819054    -0.06700
H1222       H  0.38881211  0.58792003  0.77940828     0.06700
C1223       C  0.38231260  0.65670040  0.71570367    -0.07000
Co1224     Co  0.31724550  0.69602005  0.80197665     0.74200
N1225       N  0.35657427  0.63388421  0.78590649    -0.26200
Co1226     Co  0.31826902  0.63494027  0.76404829     0.74100
C1227       C  0.39948171  0.62420362  0.72263375     0.42400
N1228       N  0.35611214  0.74292873  0.73115707     0.00800
N1229       N  0.35755776  0.63800991  0.74247658     0.00900
N1230       N  0.25379047  0.64848333  0.81348760    -0.47100
H1231       H  0.38838605  0.72589168  0.82804457     0.06700
N1232       N  0.35621199  0.65660567  0.80061144     0.01200
N1233       N  0.27983049  0.63699664  0.74223851     0.00900
C1234       C  0.23872737  0.62239280  0.72227967     0.42500
N1235       N  0.35581027  0.76575812  0.74581187    -0.25700
C1236       C  0.25180458  0.74151765  0.81525606    -0.06600
N1237       N  0.38223770  0.78463134  0.79184876    -0.46800
N1238       N  0.25548346  0.61234397  0.73880423    -0.47000
C1239       C  0.23465660  0.77404266  0.80826983     0.42300
N1240       N  0.27871527  0.65601755  0.80033137     0.01200
N1241       N  0.27835270  0.76466505  0.74590980    -0.25700
N1242       N  0.35589884  0.73589293  0.80251889    -0.26200
N1243       N  0.27878574  0.74194995  0.73118763     0.00800
H1244       H  0.24571082  0.81032162  0.75245275     0.06700
H1245       H  0.24966356  0.67090984  0.70246595     0.06700
N1246       N  0.27903411  0.63328094  0.78561960    -0.26200
N1247       N  0.35692420  0.66336793  0.72905029    -0.25900
N1248       N  0.27813595  0.76135394  0.78924977     0.01200
C1249       C  0.39886016  0.62091029  0.80714649     0.42600
C1250       C  0.38149361  0.78991758  0.74293691    -0.07100
N1251       N  0.28003170  0.66252087  0.72891580    -0.25900
H1252       H  0.38725703  0.67198911  0.70252885     0.06700
N1253       N  0.38090981  0.64948621  0.81391157    -0.47100
H1254       H  0.38670298  0.81277863  0.75208844     0.06700
C1255       C  0.23572802  0.77719742  0.72474577     0.42400
C1256       C  0.38243710  0.74179634  0.81523497    -0.06600
Co1257     Co  0.31715039  0.76394376  0.76758359     0.73800
N1258       N  0.38055182  0.75070118  0.71778098    -0.46800
C1259       C  0.23603320  0.61988784  0.80656949     0.42700
N1260       N  0.25243372  0.78493768  0.79217298    -0.46800
Co1261     Co  0.31796852  0.70279673  0.72965678     0.73900
C1262       C  0.25495137  0.65547973  0.71553678    -0.07100
C1263       C  0.38288803  0.61047186  0.78866905    -0.06700
N1264       N  0.27832840  0.73567381  0.80248297    -0.26200
N1265       N  0.38256937  0.61395280  0.73914218    -0.47000
H1266       H  0.24735315  0.58695391  0.77893357     0.06700
C1267       C  0.25169278  0.78772826  0.74323346    -0.07100
Cl1268     Cl  0.31764665  0.69941181  0.76581924    -0.50100
C1269       C  0.39770906  0.77982821  0.72442046     0.42400
H1270       H  0.24574006  0.72539994  0.82798466     0.06600
N1271       N  0.25408785  0.74898666  0.71788289    -0.46800
C1272       C  0.45158754  0.81619175  0.68362892     0.80100
N1273       N  0.42791125  0.79593400  0.69384108    -0.78300
C1274       C  0.42424360  0.80030263  0.71347336     0.82500
N1275       N  0.44431816  0.82487891  0.72290296    -0.78200
C1276       C  0.46881615  0.84421577  0.71288178     0.82600
N1277       N  0.47237540  0.83984671  0.69330669    -0.79900
C1278       C  0.19085544  0.82288302  0.68364947     0.80100
N1279       N  0.21179693  0.79966028  0.69372322    -0.78300
C1280       C  0.21021053  0.79839580  0.71358660     0.82500
N1281       N  0.18812857  0.82068205  0.72333161    -0.78200
C1282       C  0.16647154  0.84311395  0.71339969     0.82600
N1283       N  0.16818454  0.84454498  0.69359671    -0.79900
C1284       C  0.14006350  0.86521828  0.80718712     0.42300
N1285       N  0.12808266  0.90952965  0.78856283     0.01200
C1286       C  0.47699104  0.51187982  0.78888696    -0.06700
H1287       H  0.45778610  0.87744745  0.77847456     0.06700
C1288       C  0.02277007  0.88635919  0.71497426    -0.07000
Co1289     Co  0.06282175  0.94867479  0.80133337     0.74200
N1290       N  0.99974253  0.91122394  0.78483433    -0.26200
Co1291     Co  0.50315022  0.95066340  0.76433733     0.74100
C1292       C  0.49046613  0.87059662  0.72299149     0.42400
N1293       N  0.10922597  0.91131981  0.73064290     0.00800
N1294       N  0.00367921  0.91170787  0.74141828     0.00900
N1295       N  0.01759385  0.51326710  0.81329605    -0.47100
H1296       H  0.09119315  0.87604776  0.82675060     0.06700
N1297       N  0.02260630  0.91064123  0.79949618     0.01200
N1298       N  0.50596421  0.99032443  0.74264709     0.00900
C1299       C  0.49145503  0.53216094  0.72309148     0.42500
N1300       N  0.13192877  0.91112185  0.74537277    -0.25700
C1301       C  0.11082642  0.51188939  0.81535436    -0.06600
N1302       N  0.15148371  0.88358894  0.79138081    -0.46800
N1303       N  0.48066948  0.51412835  0.73917155    -0.47000
C1304       C  0.14368765  0.52856343  0.80853525     0.42300
N1305       N  0.02403081  0.98809024  0.79982976     0.01200
N1306       N  0.13186426  0.98859702  0.74570643    -0.25700
N1307       N  0.10215712  0.90941693  0.80165533    -0.26200
N1308       N  0.10884336  0.98868991  0.73111705     0.00800
H1309       H  0.18122770  0.51751840  0.75144182     0.06700
H1310       H  0.04149831  0.52313999  0.70273186     0.06700
N1311       N  0.50232281  0.98859720  0.78622157    -0.26200
N1312       N  0.02945767  0.91176775  0.72823031    -0.25900
N1313       N  0.12825610  0.98752009  0.78898884     0.01200
C1314       C  0.98637544  0.86815525  0.80573412     0.42600
C1315       C  0.15548844  0.88494873  0.74272591    -0.07100
N1316       N  0.02989935  0.98871624  0.72814189    -0.25900
H1317       H  0.03850097  0.88086841  0.70204553     0.06700
N1318       N  0.01515309  0.88562120  0.81259295    -0.47100
H1319       H  0.17811430  0.87927915  0.75200240     0.06700
C1320       C  0.14814727  0.52951569  0.72389833     0.42400
C1321       C  0.10754610  0.88238656  0.81415473    -0.06600
Co1322     Co  0.13074552  0.94921820  0.76717741     0.73800
N1323       N  0.11676022  0.88682650  0.71732444    -0.46800
C1324       C  0.48772315  0.52733614  0.80751183     0.42700
N1325       N  0.15378294  0.51165133  0.79203335    -0.46800
Co1326     Co  0.06953404  0.95003529  0.72911959     0.73900
C1327       C  0.02560234  0.51757766  0.71561072    -0.07100
C1328       C  0.48008821  0.88353775  0.78788660    -0.06700
N1329       N  0.10297990  0.98687200  0.80242304    -0.26200
N1330       N  0.48022796  0.88773371  0.73934352    -0.47000
H1331       H  0.45433131  0.51817186  0.77975754     0.06700
C1332       C  0.15816436  0.51287947  0.74233260    -0.07100
Cl1333     Cl  0.06612331  0.94953674  0.76521141    -0.50100
C1334       C  0.14527750  0.86894078  0.72425870     0.42400
H1335       H  0.09522273  0.51730369  0.82833923     0.06600
N1336       N  0.11864105  0.51304193  0.71727334    -0.46800
C1337       C  0.19658985  0.57199761  0.86967557    -0.20000
C1338       C  0.23006525  0.57971418  0.87818448     0.36200
C1339       C  0.23686196  0.56986120  0.89758480    -0.26000
C1340       C  0.21103979  0.55250720  0.90894959     0.02600
C1341       C  0.17662729  0.54737127  0.90116457     0.27400
C1342       C  0.16990852  0.55662601  0.88149802    -0.25100
N1343       N  0.25812021  0.59579609  0.86698286    -0.82500
H1344       H  0.26329501  0.57421331  0.90347416     0.13200
C1345       C  0.22207040  0.53738636  0.92814459     0.02600
N1346       N  0.14891830  0.53231922  0.91315798    -0.81100
H1347       H  0.14393336  0.55124089  0.87529185     0.18000
C1348       C  0.24048772  0.55903546  0.94150412    -0.25900
C1349       C  0.25730815  0.54437104  0.95791922     0.36100
C1350       C  0.24858323  0.01648181  0.96143579    -0.20000
C1351       C  0.22878012  0.99537608  0.94848769    -0.25200
C1352       C  0.21448614  0.00983361  0.93125569     0.27500
H1353       H  0.24332089  0.58727572  0.93860892     0.13200
N1354       N  0.27842185  0.56715821  0.97004277    -0.82500
H1355       H  0.22630041  0.96703468  0.95118811     0.18100
N1356       N  0.19805531  0.98679142  0.91723766    -0.81100
H1357       H  0.26827352  0.56636498  0.98428630     0.33700
H1358       H  0.30448959  0.55738866  0.97026561     0.38200
H1359       H  0.21666482  0.96748698  0.91312324     0.33700
H1360       H  0.17674526  0.97386556  0.92409775     0.30400
H1361       H  0.14402558  0.55007441  0.92461229     0.33700
H1362       H  0.12121697  0.04485409  0.90493515     0.30400
H1363       H  0.27990653  0.57847069  0.86691490     0.38200
H1364       H  0.26581331  0.61924079  0.87402583     0.33700
C1365       C  0.44225037  0.82745194  0.86848552    -0.20000
C1366       C  0.42756468  0.80143585  0.88112424     0.36200
C1367       C  0.41634138  0.81132335  0.89997301    -0.26000
C1368       C  0.41953256  0.84655926  0.90642840     0.02600
C1369       C  0.43576067  0.87220400  0.89421408     0.27400
C1370       C  0.44737333  0.86226586  0.87546913    -0.25100
N1371       N  0.42358953  0.76525604  0.87469092    -0.82500
H1372       H  0.40429357  0.79166624  0.90956254     0.13200
C1373       C  0.40380062  0.85679521  0.92549781     0.02600
N1374       N  0.43899775  0.90853429  0.90057402    -0.81100
H1375       H  0.45846830  0.88244577  0.86587091     0.18000
C1376       C  0.42555048  0.87195377  0.93992927    -0.25900
C1377       C  0.41090165  0.88524396  0.95726209     0.36100
C1378       C  0.37381929  0.88269747  0.96046619    -0.20000
C1379       C  0.35230290  0.86600906  0.94646689    -0.25200
C1380       C  0.36683001  0.85346571  0.92884990     0.27500
H1381       H  0.45393701  0.87454962  0.93738807     0.13200
N1382       N  0.43394472  0.90274629  0.97088103    -0.82500
H1383       H  0.32378361  0.86467589  0.94885468     0.18100
N1384       N  0.34404235  0.83879747  0.91401340    -0.81100
H1385       H  0.43266060  0.88930053  0.98427421     0.33700
H1386       H  0.42480832  0.92874851  0.97292278     0.38200
H1387       H  0.31758085  0.83824096  0.91881545     0.33700
H1388       H  0.34485551  0.85595214  0.90193365     0.30400
H1389       H  0.45161267  0.92401846  0.88987018     0.33700
H1390       H  0.41326873  0.91879836  0.90217982     0.30400
H1391       H  0.44911206  0.75505016  0.87226787     0.38200
H1392       H  0.41204350  0.74960865  0.88569034     0.33700
C1393       C  0.17644895  0.58942894  0.66197712    -0.20000
C1394       C  0.20381983  0.60117716  0.64929876     0.36200
C1395       C  0.19659558  0.60647656  0.62938223    -0.26000
C1396       C  0.16232276  0.60089197  0.62189278     0.02600
C1397       C  0.13499437  0.58861251  0.63446598     0.27400
C1398       C  0.14255182  0.58238676  0.65428369    -0.25100
N1399       N  0.23907763  0.60743701  0.65649153    -0.82500
H1400       H  0.21774627  0.61555208  0.61976233     0.13200
C1401       C  0.15449981  0.61014559  0.60123700     0.02600
N1402       N  0.09939924  0.58363878  0.62720544    -0.81100
H1403       H  0.12141456  0.57337757  0.66392405     0.18000
C1404       C  0.13795164  0.58485367  0.58919952    -0.25900
C1405       C  0.12330094  0.59454353  0.57112846     0.36100
C1406       C  0.12686292  0.63013636  0.56458600    -0.20000
C1407       C  0.14654684  0.65447341  0.57572892    -0.25200
C1408       C  0.15992077  0.64507345  0.59417134     0.27500
H1409       H  0.13440165  0.55783079  0.59445877     0.13200
N1410       N  0.10364284  0.56811605  0.56044271    -0.82500
H1411       H  0.14901649  0.68172857  0.57064374     0.18100
N1412       N  0.17709137  0.67137575  0.60616880    -0.81100
H1413       H  0.08160871  0.56087237  0.56895896     0.33700
H1414       H  0.09365695  0.57812910  0.54730447     0.38200
H1415       H  0.17909247  0.69564674  0.59871024     0.33700
H1416       H  0.16080230  0.67589420  0.61834597     0.30400
H1417       H  0.08254343  0.57433115  0.63830088     0.33700
H1418       H  0.08967582  0.60858264  0.62298772     0.30400
H1419       H  0.25061687  0.07804476  0.64567461     0.38200
H1420       H  0.23227498  0.05558291  0.66440481     0.33700
C1421       C  0.00240159  0.76119961  0.56439482    -0.20000
C1422       C  0.02650314  0.77537289  0.57833203     0.36200
C1423       C  0.51359676  0.80129968  0.59637155    -0.26000
C1424       C  0.47777613  0.79596802  0.60137061     0.02600
C1425       C  0.45427456  0.78143514  0.58751821     0.27400
C1426       C  0.46767415  0.76894519  0.56964448    -0.25100
N1427       N  0.06434368  0.77672474  0.57500680    -0.82500
H1428       H  0.53164011  0.81308083  0.60690064     0.13200
C1429       C  0.46666034  0.80206263  0.62184187     0.02600
N1430       N  0.41706824  0.77834918  0.59186694    -0.81100
H1431       H  0.44993933  0.75552061  0.55956967     0.18000
C1432       C  0.47012327  0.83605593  0.62998056    -0.25900
C1433       C  0.46406502  0.84167561  0.65004121     0.36100
C1434       C  0.45496221  0.81242022  0.66218180    -0.20000
C1435       C  0.45026690  0.77871520  0.65381236    -0.25200
C1436       C  0.45642384  0.77325097  0.63383136     0.27500
H1437       H  0.47808317  0.85809988  0.62067810     0.13200
N1438       N  0.46711963  0.87688233  0.65808034    -0.82500
H1439       H  0.44332859  0.75611549  0.66295748     0.18100
N1440       N  0.95935925  0.72888490  0.62713443    -0.81100
H1441       H  0.44188801  0.88438113  0.66308236     0.33700
H1442       H  0.47426118  0.89521450  0.64720385     0.38200
H1443       H  0.95553838  0.71107490  0.63874506     0.33700
H1444       H  0.93787108  0.72518726  0.61769402     0.30400
H1445       H  0.40299233  0.79235117  0.58112789     0.33700
H1446       H  0.40996139  0.75151438  0.59084826     0.30400
H1447       H  0.07073088  0.76957025  0.56067259     0.38200
H1448       H  0.07225322  0.80330086  0.57634179     0.33700
C1449       C  0.12048596  0.76258127  0.96583063    -0.20000
C1450       C  0.15305244  0.75070276  0.95807697     0.36200
C1451       C  0.16324004  0.76120961  0.93916984    -0.26000
C1452       C  0.14133885  0.78367500  0.92796736     0.02600
C1453       C  0.11017659  0.79786726  0.93645126     0.27400
C1454       C  0.09993849  0.78714204  0.95530952    -0.25100
N1455       N  0.17422708  0.72565701  0.96877343    -0.82500
H1456       H  0.18715203  0.74996807  0.93279343     0.13200
C1457       C  0.14945250  0.78926688  0.90692865     0.02600
N1458       N  0.08833589  0.82227216  0.92568837    -0.81100
H1459       H  0.07470616  0.79614554  0.96122723     0.18000
C1460       C  0.12335333  0.78098004  0.89292190    -0.25900
C1461       C  0.13006124  0.78559847  0.87289557     0.36100
C1462       C  0.16361780  0.79771522  0.86670171    -0.20000
C1463       C  0.19004795  0.80521914  0.88055083    -0.25200
C1464       C  0.18307808  0.80148564  0.90063754     0.27500
H1465       H  0.09768602  0.77072681  0.89754488     0.13200
N1466       N  0.10301291  0.77743128  0.85883923    -0.82500
H1467       H  0.21583663  0.81494668  0.87577655     0.18100
N1468       N  0.20981695  0.81097405  0.91461231    -0.81100
H1469       H  0.08074619  0.79313508  0.86192823     0.33700
H1470       H  0.09574627  0.75074763  0.86068360     0.38200
H1471       H  0.23242243  0.79553089  0.91185670     0.33700
H1472       H  0.21659006  0.83766365  0.91232500     0.30400
H1473       H  0.06285608  0.81123193  0.92447714     0.33700
H1474       H  0.08623867  0.84572919  0.93379509     0.30400
H1475       H  0.17665789  0.70261917  0.96035561     0.38200
H1476       H  0.19966246  0.73658392  0.97052277     0.33700
C1477       C  0.99184022  0.63556984  0.96620193    -0.20000
C1478       C  0.49738607  0.59580387  0.96211629     0.36200
C1479       C  0.48487496  0.58666341  0.94342954    -0.26000
C1480       C  0.47532687  0.61318667  0.92987114     0.02600
C1481       C  0.47578521  0.64926709  0.93567674     0.27400
C1482       C  0.97616307  0.65944569  0.95294874    -0.25100
N1483       N  0.50907074  0.56868121  0.97538733    -0.82500
H1484       H  0.48432255  0.55892705  0.93912500     0.13200
C1485       C  0.46906603  0.60329563  0.90920228     0.02600
N1486       N  0.95283723  0.67434483  0.92081261    -0.81100
H1487       H  0.97550747  0.68762442  0.95631363     0.18000
C1488       C  0.43556648  0.60878384  0.90078398    -0.25900
C1489       C  0.42983617  0.60242610  0.88076194     0.36100
C1490       C  0.45841730  0.59032998  0.86890843    -0.20000
C1491       C  0.49152612  0.58339846  0.87765899    -0.25200
C1492       C  0.49709497  0.59004777  0.89761694     0.27500
H1493       H  0.41387297  0.61823347  0.90987018     0.13200
N1494       N  0.39504804  0.60792178  0.87252658    -0.82500
H1495       H  0.51359737  0.57392104  0.86885729     0.18100
N1496       N  0.53160435  0.58442110  0.90598736    -0.81100
H1497       H  0.37729219  0.61736682  0.88316665     0.33700
H1498       H  0.38542253  0.58316615  0.86809489     0.38200
H1499       H  0.53844997  0.55772031  0.90397546     0.33700
H1500       H  0.04282401  0.61322846  0.89816996     0.30400
H1501       H  0.96925696  0.67339970  0.90841275     0.33700
H1502       H  0.43969258  0.67458830  0.91856058     0.30400
H1503       H  0.48762186  0.55157173  0.97802341     0.38200
H1504       H  0.52917104  0.55405291  0.96849212     0.33700
C1505       C  0.37837061  0.02101417  0.56888933    -0.20000
C1506       C  0.34895503  0.53707815  0.58385712     0.36200
C1507       C  0.36605617  0.55179729  0.60009583    -0.26000
C1508       C  0.40302134  0.54839644  0.60259304     0.02600
C1509       C  0.42344019  0.53156111  0.58789846     0.27400
C1510       C  0.41565355  0.02064640  0.57034336    -0.25100
N1511       N  0.31118310  0.54133264  0.58207753    -0.82500
H1512       H  0.35010545  0.56457081  0.61129556     0.13200
C1513       C  0.41892839  0.55838089  0.62173056     0.02600
N1514       N  0.46149361  0.52925752  0.58977456    -0.81100
H1515       H  0.43106148  0.00644052  0.55944537     0.18000
C1516       C  0.43624422  0.53194390  0.63264403    -0.25900
C1517       C  0.44636639  0.53769743  0.65215232     0.36100
C1518       C  0.43957627  0.57117946  0.66096094    -0.20000
C1519       C  0.42386581  0.59826010  0.64961674    -0.25200
C1520       C  0.41348543  0.59220554  0.63011177     0.27500
H1521       H  0.45328089  0.01342134  0.62356949     0.13200
N1522       N  0.46150546  0.50884226  0.66324249    -0.82500
H1523       H  0.41883238  0.62402733  0.65614344     0.18100
N1524       N  0.39674178  0.61996560  0.61890873    -0.81100
H1525       H  0.48160210  0.99485748  0.65101150     0.33700
H1526       H  0.44260153  0.50099366  0.67366365     0.38200
H1527       H  0.39443024  0.64317856  0.62722960     0.33700
H1528       H  0.41353580  0.62602971  0.60713430     0.30400
H1529       H  0.47251473  0.51591655  0.57778755     0.33700
H1530       H  0.47156692  0.55519728  0.58938960     0.30400
H1531       H  0.31437164  0.05463669  0.56771673     0.38200
H1532       H  0.29921112  0.51623787  0.58217903     0.33700
C1533       C  0.19760248  0.82962550  0.66264916    -0.20000
C1534       C  0.20491188  0.80196918  0.64932344     0.36200
C1535       C  0.21419886  0.81050391  0.62987768    -0.26000
C1536       C  0.21748826  0.84613004  0.62373061     0.02600
C1537       C  0.21020334  0.87371650  0.63721117     0.27400
C1538       C  0.19956405  0.86510140  0.65631422    -0.25100
N1539       N  0.20294815  0.76546089  0.65558434    -0.82500
H1540       H  0.21931124  0.78930294  0.61953063     0.13200
C1541       C  0.22990634  0.85461348  0.60349993     0.02600
N1542       N  0.21486450  0.91042229  0.63169110    -0.81100
H1543       H  0.19460430  0.88637865  0.66664964     0.18000
C1544       C  0.21139002  0.88026744  0.59249429    -0.25900
C1545       C  0.22592391  0.89447821  0.57521980     0.36100
C1546       C  0.25826504  0.88075462  0.56799955    -0.20000
C1547       C  0.27487035  0.85242800  0.57777995    -0.25200
C1548       C  0.26179604  0.84009918  0.59587439     0.27500
H1549       H  0.18653749  0.89085900  0.59806969     0.13200
N1550       N  0.20933715  0.92441077  0.56575386    -0.82500
H1551       H  0.29989540  0.84229060  0.57216715     0.18100
N1552       N  0.28196511  0.81465930  0.60704356    -0.81100
H1553       H  0.18677934  0.93253624  0.57355244     0.33700
H1554       H  0.20033888  0.91607588  0.55205585     0.38200
H1555       H  0.30474924  0.80682173  0.59936114     0.33700
H1556       H  0.29084755  0.82743491  0.61971753     0.30400
H1557       H  0.20818294  0.92733656  0.64326459     0.33700
H1558       H  0.24193565  0.91441490  0.62881852     0.30400
H1559       H  0.17648124  0.76016798  0.65939429     0.38200
H1560       H  0.20932079  0.74838439  0.64403555     0.33700
C1561       C  0.25767205  0.01467012  0.06464753    -0.20000
C1562       C  0.23458182  0.99102856  0.07454643     0.36200
C1563       C  0.22206873  0.99967675  0.09312542    -0.26000
C1564       C  0.22556389  0.52338074  0.09983361     0.02600
C1565       C  0.24010590  0.54896588  0.08688385     0.27400
C1566       C  0.25581002  0.53770272  0.06924551    -0.25100
N1567       N  0.22511759  0.95715530  0.06646890    -0.82500
H1568       H  0.20603408  0.98041202  0.10104942     0.13200
C1569       C  0.21716449  0.53238040  0.12045831     0.02600
N1570       N  0.23989733  0.58601035  0.09207223    -0.81100
H1571       H  0.26880322  0.55685216  0.05972208     0.18000
C1572       C  0.24415707  0.54730123  0.13197247    -0.25900
C1573       C  0.23974831  0.55206632  0.15219892     0.36100
C1574       C  0.20723070  0.54198262  0.16117942    -0.20000
C1575       C  0.17997068  0.52751672  0.14949360    -0.25200
C1576       C  0.18458127  0.52267734  0.12924312     0.27500
H1577       H  0.26950631  0.55386816  0.12524960     0.13200
N1578       N  0.26866122  0.56604844  0.16362208    -0.82500
H1579       H  0.15481886  0.52006231  0.15613731     0.18100
N1580       N  0.15646952  0.50776151  0.11758291    -0.81100
H1581       H  0.29024565  0.57288795  0.15465487     0.33700
H1582       H  0.27753055  0.54567323  0.17284857     0.38200
H1583       H  0.13428952  0.50182242  0.12628606     0.33700
H1584       H  0.14841047  0.52726571  0.10758290     0.30400
H1585       H  0.25179823  0.60129956  0.08103570     0.33700
H1586       H  0.21329453  0.59409083  0.09289935     0.30400
H1587       H  0.21326524  0.96143674  0.05283116     0.38200
H1588       H  0.24827364  0.94217963  0.06441255     0.33700
C1589       C  0.17945549  0.55712108  0.36966344    -0.20000
C1590       C  0.20532308  0.56925869  0.38311035     0.36200
C1591       C  0.19525354  0.57650473  0.40261837    -0.26000
C1592       C  0.15990671  0.57203651  0.40896569     0.02600
C1593       C  0.13432436  0.55897134  0.39571195     0.27400
C1594       C  0.14456060  0.55079880  0.37643679    -0.25100
N1595       N  0.24147473  0.57484910  0.37686789    -0.82500
H1596       H  0.21474390  0.58698042  0.41276968     0.13200
C1597       C  0.14873044  0.58675569  0.42823094     0.02600
N1598       N  0.09757930  0.55603690  0.40151675    -0.81100
H1599       H  0.12438100  0.54175086  0.36628815     0.18000
C1600       C  0.15022115  0.62377896  0.43067407    -0.25900
C1601       C  0.13561749  0.64003113  0.44727752     0.36100
C1602       C  0.11896853  0.61914491  0.46176431    -0.20000
C1603       C  0.11931453  0.58191624  0.46002653    -0.25200
C1604       C  0.13429194  0.56537609  0.44339898     0.27500
H1605       H  0.16169497  0.64032818  0.41926051     0.13200
N1606       N  0.13711666  0.67794202  0.44928146    -0.82500
H1607       H  0.10707700  0.56588189  0.47141149     0.18100
N1608       N  0.13564505  0.52719680  0.44213062    -0.81100
H1609       H  0.12440389  0.68933911  0.43719046     0.33700
H1610       H  0.16388371  0.68563295  0.44893015     0.38200
H1611       H  0.12556565  0.51564444  0.45494951     0.33700
H1612       H  0.11882954  0.51908319  0.43085188     0.30400
H1613       H  0.08816436  0.58169299  0.40436735     0.33700
H1614       H  0.08212284  0.54599015  0.39007340     0.30400
H1615       H  0.25191027  0.55009777  0.37291189     0.38200
H1616       H  0.25701216  0.58416012  0.38847162     0.33700
C1617       C  0.41630493  0.54465177  0.36801781    -0.20000
C1618       C  0.40625656  0.57497776  0.37896689     0.36200
C1619       C  0.40314374  0.57263604  0.39937043    -0.26000
C1620       C  0.40893079  0.54038548  0.40920122     0.02600
C1621       C  0.41823848  0.50991120  0.39827401     0.27400
C1622       C  0.42264080  0.51248585  0.37790512    -0.25100
N1623       N  0.39935751  0.60837109  0.36952551    -0.82500
H1624       H  0.39540025  0.59606712  0.40756589     0.13200
C1625       C  0.40043496  0.53783526  0.43040881     0.02600
N1626       N  0.41298287  0.97346054  0.40420419    -0.81100
H1627       H  0.42983418  0.48887102  0.36972701     0.18000
C1628       C  0.36625826  0.54836480  0.43646882    -0.25900
C1629       C  0.35320188  0.53883071  0.45486267     0.36100
C1630       C  0.38122561  0.01789656  0.46649466    -0.20000
C1631       C  0.41535712  0.00803026  0.46019889    -0.25200
C1632       C  0.42360158  0.52161460  0.44419394     0.27500
H1633       H  0.34857235  0.56180627  0.42633796     0.13200
N1634       N  0.31759671  0.54883935  0.46004954    -0.82500
H1635       H  0.43158608  0.99082646  0.46929767     0.18100
N1636       N  0.46044751  0.51447243  0.43996931    -0.81100
H1637       H  0.30253592  0.52582845  0.46238599     0.33700
H1638       H  0.32772950  0.06496608  0.47390649     0.38200
H1639       H  0.48042277  0.01470862  0.44379553     0.33700
H1640       H  0.47565818  0.52767986  0.45050913     0.30400
H1641       H  0.38742865  0.97024729  0.41006829     0.33700
H1642       H  0.41599181  0.95385044  0.39349553     0.30400
H1643       H  0.37323850  0.61595411  0.37286727     0.38200
H1644       H  0.41658643  0.62740495  0.37538371     0.33700
C1645       C  0.12651517  0.75896927  0.06830965    -0.20000
C1646       C  0.16275150  0.75184370  0.07214553     0.36200
C1647       C  0.17880021  0.76641944  0.08877458    -0.26000
C1648       C  0.15901308  0.78718007  0.10197782     0.02600
C1649       C  0.12326104  0.79540777  0.09766221     0.27400
C1650       C  0.10743058  0.78154110  0.08077794    -0.25100
N1651       N  0.18316081  0.72843715  0.05999042    -0.82500
H1652       H  0.20627848  0.75988016  0.09201443     0.13200
C1653       C  0.17387822  0.79545653  0.12153844     0.02600
N1654       N  0.10229096  0.81592864  0.11104691    -0.81100
H1655       H  0.07954662  0.78686629  0.07792255     0.18000
C1656       C  0.17471316  0.83072217  0.12833399    -0.25900
C1657       C  0.18313575  0.83831485  0.14799048     0.36100
C1658       C  0.19102459  0.81003618  0.16092754    -0.20000
C1659       C  0.19231755  0.77510487  0.15369857    -0.25200
C1660       C  0.18345524  0.76758619  0.13428536     0.27500
H1661       H  0.16764273  0.85217038  0.11843958     0.13200
N1662       N  0.18323017  0.87440669  0.15489803    -0.82500
H1663       H  0.19810388  0.75306421  0.16345975     0.18100
N1664       N  0.18208951  0.73131245  0.12788657    -0.81100
H1665       H  0.17683445  0.89195298  0.14356568     0.33700
H1666       H  0.20931455  0.88048067  0.15916668     0.38200
H1667       H  0.20727666  0.72006302  0.12993126     0.33700
H1668       H  0.16400453  0.71759164  0.13679826     0.30400
H1669       H  0.09242929  0.83805231  0.10351993     0.33700
H1670       H  0.08059586  0.80038215  0.11552078     0.30400
H1671       H  0.17048675  0.70366824  0.05969989     0.38200
H1672       H  0.18349208  0.73877317  0.04576385     0.33700
C1673       C  0.99404492  0.63047351  0.06924592    -0.20000
C1674       C  0.47208214  0.64709209  0.08361494     0.36200
C1675       C  0.45790657  0.62903704  0.09985198    -0.26000
C1676       C  0.46495563  0.59273986  0.10288957     0.02600
C1677       C  0.97850698  0.57537087  0.08630398     0.27400
C1678       C  0.99439020  0.59316537  0.07039169    -0.25100
N1679       N  0.46554017  0.68436643  0.08108906    -0.82500
H1680       H  0.44281709  0.64385092  0.11064301     0.13200
C1681       C  0.45520428  0.57655166  0.12204835     0.02600
N1682       N  0.97827897  0.53726344  0.08687567    -0.81100
H1683       H  0.00758353  0.57787263  0.05907117     0.18000
C1684       C  0.41982533  0.57810278  0.12873689    -0.25900
C1685       C  0.41100167  0.56817031  0.14802623     0.36100
C1686       C  0.43793979  0.55651512  0.16089640    -0.20000
C1687       C  0.47290570  0.55305459  0.15378605    -0.25200
C1688       C  0.48180442  0.56340749  0.13467354     0.27500
H1689       H  0.39915648  0.58805766  0.11911944     0.13200
N1690       N  0.37476295  0.57016724  0.15451251    -0.82500
H1691       H  0.49407049  0.54446600  0.16347429     0.18100
N1692       N  0.01032837  0.55137138  0.12498857    -0.81100
H1693       H  0.35938820  0.55397361  0.14541034     0.33700
H1694       H  0.36606190  0.59641399  0.15275422     0.38200
H1695       H  0.02878577  0.56328602  0.13434247     0.33700
H1696       H  0.01390693  0.52378631  0.12578334     0.30400
H1697       H  0.96496591  0.52818819  0.07441493     0.33700
H1698       H  0.00463233  0.52841602  0.08602535     0.30400
H1699       H  0.43799519  0.68814352  0.08027691     0.38200
H1700       H  0.47481653  0.69758943  0.09352713     0.33700
C1701       C  0.25881912  0.88351799  0.46453129    -0.20000
C1702       C  0.23612849  0.90438630  0.45274424     0.36200
C1703       C  0.22453351  0.89119416  0.43459798    -0.26000
C1704       C  0.23526782  0.85754748  0.42792199     0.02600
C1705       C  0.25629901  0.83579744  0.44025427     0.27400
C1706       C  0.26792824  0.84905028  0.45846198    -0.25100
N1707       N  0.22674584  0.93977525  0.45880743    -0.82500
H1708       H  0.20860337  0.90802395  0.42514305     0.13200
C1709       C  0.22723911  0.84729738  0.40728815     0.02600
N1710       N  0.26661157  0.80081798  0.43395099    -0.81100
H1711       H  0.28565812  0.83326437  0.46747694     0.18000
C1712       C  0.25557898  0.83992398  0.39446790    -0.25900
C1713       C  0.24970438  0.83357414  0.37442474     0.36100
C1714       C  0.21462499  0.83471782  0.36695851    -0.20000
C1715       C  0.18624843  0.84177460  0.37981666    -0.25200
C1716       C  0.19213765  0.84770195  0.39991112     0.27500
H1717       H  0.28258375  0.84020998  0.40003265     0.13200
N1718       N  0.27934403  0.82696101  0.36156999    -0.82500
H1719       H  0.15927231  0.84209600  0.37421161     0.18100
N1720       N  0.16263013  0.85400950  0.41288480    -0.81100
H1721       H  0.30326439  0.82682308  0.36938155     0.33700
H1722       H  0.28088953  0.84822335  0.35168615     0.38200
H1723       H  0.13858893  0.85347868  0.40518348     0.33700
H1724       H  0.16170774  0.83292673  0.42289974     0.30400
H1725       H  0.28232787  0.78840397  0.44458874     0.33700
H1726       H  0.24341014  0.78561489  0.43266533     0.30400
H1727       H  0.21165375  0.93752445  0.47163096     0.38200
H1728       H  0.21040510  0.95197204  0.44837802     0.33700
C1729       C  0.41640568  0.83097933  0.16090438    -0.20000
C1730       C  0.40660366  0.80330505  0.14794745     0.36200
C1731       C  0.40021473  0.81123125  0.12810989    -0.26000
C1732       C  0.40410985  0.84598219  0.12090278     0.02600
C1733       C  0.41449425  0.87334533  0.13373790     0.27400
C1734       C  0.42090961  0.86560627  0.15351194    -0.25100
N1735       N  0.40356546  0.76725244  0.15487761    -0.82500
H1736       H  0.39217027  0.79026295  0.11818991     0.13200
C1737       C  0.39471579  0.85403038  0.10027971     0.02600
N1738       N  0.41718226  0.90932051  0.12687516    -0.81100
H1739       H  0.42833387  0.88708629  0.16324833     0.18000
C1740       C  0.35936297  0.84933479  0.09424984    -0.25900
C1741       C  0.34784158  0.86227113  0.07613620     0.36100
C1742       C  0.37217785  0.87980321  0.06358387    -0.20000
C1743       C  0.40817068  0.88187862  0.06888785    -0.25200
C1744       C  0.41974653  0.86898159  0.08717277     0.27500
H1745       H  0.34013357  0.83743133  0.10415967     0.13200
N1746       N  0.31097540  0.85862739  0.07113720    -0.82500
H1747       H  0.42674588  0.89541562  0.05925035     0.18100
N1748       N  0.45646000  0.87210651  0.09281854    -0.81100
H1749       H  0.29992941  0.88396582  0.06941736     0.33700
H1750       H  0.30935735  0.84531906  0.05774454     0.38200
H1751       H  0.46646740  0.84634318  0.09462883     0.33700
H1752       H  0.47134762  0.88396445  0.08160751     0.30400
H1753       H  0.39960237  0.92494106  0.13506227     0.33700
H1754       H  0.44305505  0.91830184  0.12959701     0.30400
H1755       H  0.42893042  0.75901597  0.15928134     0.38200
H1756       H  0.39589512  0.75028815  0.14353560     0.33700
C1757       C  0.43198828  0.81015096  0.36823094    -0.20000
C1758       C  0.42732354  0.77649243  0.37718496     0.36200
C1759       C  0.43535312  0.77196917  0.39703814    -0.26000
C1760       C  0.44772528  0.80034732  0.40844833     0.02600
C1761       C  0.45106030  0.83441225  0.39985222     0.27400
C1762       C  0.44344526  0.83889885  0.37979161    -0.25100
N1763       N  0.41629017  0.74620291  0.36602595    -0.82500
H1764       H  0.43336782  0.74554862  0.40336883     0.13200
C1765       C  0.46041106  0.79252536  0.42863560     0.02600
N1766       N  0.46258830  0.86411387  0.41145286    -0.81100
H1767       H  0.44695173  0.86484627  0.37309154     0.18000
C1768       C  0.99843813  0.78131100  0.43107198    -0.25900
C1769       C  0.01341050  0.76554500  0.44763595     0.36100
C1770       C  0.99132664  0.74761150  0.46122473    -0.20000
C1771       C  0.45477780  0.75893213  0.45907208    -0.25200
C1772       C  0.43919736  0.77292561  0.44198346     0.27500
H1773       H  0.01589262  0.79349257  0.42030901     0.13200
N1774       N  0.05122092  0.76775658  0.45020450    -0.82500
H1775       H  0.43921559  0.74226027  0.46883889     0.18100
N1776       N  0.40231352  0.76629493  0.43772444    -0.81100
H1777       H  0.06194167  0.74211139  0.45002604     0.33700
H1778       H  0.05630837  0.77916021  0.46386032     0.38200
H1779       H  0.39054084  0.75127594  0.44891057     0.33700
H1780       H  0.38927270  0.79087404  0.43751084     0.30400
H1781       H  0.46374857  0.88726092  0.40293724     0.33700
H1782       H  0.44322124  0.86848422  0.42220479     0.30400
H1783       H  0.43613468  0.72676989  0.36701369     0.38200
H1784       H  0.39309747  0.73595528  0.37240713     0.33700
C1785       C  0.93028799  0.31372444  0.34719953     0.80100
N1786       N  0.95176180  0.33727137  0.33760943    -0.78300
C1787       C  0.95281093  0.33794072  0.31771374     0.82500
N1788       N  0.93269148  0.31466080  0.30735233    -0.78200
C1789       C  0.91027081  0.29203309  0.31676038     0.82600
N1790       N  0.90925092  0.29158677  0.33659462    -0.79900
C1791       C  0.92386035  0.32230210  0.18288086     0.80100
N1792       N  0.94691142  0.34290451  0.19316321    -0.78300
C1793       C  0.95132551  0.33749580  0.21266204     0.82500
N1794       N  0.93263174  0.31148805  0.22191819    -0.78200
C1795       C  0.90875498  0.29165975  0.21185498     0.82600
N1796       N  0.90444601  0.29707636  0.19237180    -0.79900
C1797       C  0.70620942  0.33002952  0.34692236     0.80100
N1798       N  0.68066399  0.34811491  0.33697366    -0.78300
C1799       C  0.67296674  0.33995329  0.31810893     0.82500
N1800       N  0.69093260  0.31328048  0.30902185    -0.78200
C1801       C  0.71701195  0.29535863  0.31870148     0.82600
N1802       N  0.72442504  0.30371752  0.33761821    -0.79900
C1803       C  0.93144678  0.05422090  0.18150859     0.80100
N1804       N  0.90878149  0.07575078  0.19157604    -0.78300
C1805       C  0.90856268  0.07565886  0.21149590     0.82500
N1806       N  0.93155630  0.05426937  0.22141153    -0.78200
C1807       C  0.95336428  0.03176311  0.21149055     0.82600
N1808       N  0.95337891  0.03206098  0.19163010    -0.79900
C1809       C  0.97852953  0.36063926  0.30742871     0.42300
N1810       N  0.52339418  0.37119772  0.28882653     0.01200
C1811       C  0.62268923  0.02646927  0.28623914    -0.06700
H1812       H  0.48539742  0.04686962  0.27719540     0.06700
C1813       C  0.49541841  0.47629261  0.21645086    -0.07000
Co1814     Co  0.56174814  0.43657688  0.30178886     0.74200
N1815       N  0.52203620  0.49877971  0.28617880    -0.26200
Co1816     Co  0.56033152  0.49853868  0.26416461     0.74100
C1817       C  0.47698466  0.01265044  0.22030733     0.42400
N1818       N  0.52292654  0.39137110  0.23087779     0.00800
N1819       N  0.52081405  0.49566441  0.24275650     0.00900
N1820       N  0.62492948  0.48393065  0.31339745    -0.47100
H1821       H  0.49201851  0.40491253  0.32836275     0.06700
N1822       N  0.52243015  0.47568874  0.30078361     0.01200
N1823       N  0.59874594  0.49702715  0.24217898     0.00900
C1824       C  0.64066344  0.51106022  0.22245935     0.42500
N1825       N  0.52311673  0.36782212  0.24526010    -0.25700
C1826       C  0.62730031  0.39198540  0.31475144    -0.06600
N1827       N  0.49804274  0.34731819  0.29174778    -0.46800
N1828       N  0.62358666  0.52131104  0.23887536    -0.47000
C1829       C  0.64481803  0.35972560  0.30792957     0.42300
N1830       N  0.60002451  0.47676730  0.30024628     0.01200
N1831       N  0.60094501  0.36934697  0.24525684    -0.25700
N1832       N  0.52369012  0.39628653  0.30233453    -0.26200
N1833       N  0.60036336  0.39251961  0.23068858     0.00800
H1834       H  0.63475071  0.32450755  0.25181158     0.06700
H1835       H  0.62988256  0.46261623  0.20277711     0.06700
N1836       N  0.59972947  0.49983209  0.28562408    -0.26200
N1837       N  0.52155493  0.47038004  0.22937937    -0.25900
N1838       N  0.60143805  0.37188835  0.28873396     0.01200
C1839       C  0.47552351  0.01307460  0.30481275     0.42600
C1840       C  0.49677550  0.34434296  0.24218598    -0.07100
N1841       N  0.59862924  0.47161796  0.22888212    -0.25900
H1842       H  0.49020631  0.46073456  0.20346473     0.06700
N1843       N  0.49731921  0.48205375  0.31403843    -0.47100
H1844       H  0.98935360  0.32456042  0.25093834     0.06700
C1845       C  0.64448515  0.35859867  0.22429036     0.42400
C1846       C  0.49777766  0.38952456  0.31537578    -0.06600
Co1847     Co  0.56220492  0.36926623  0.26706013     0.73800
N1848       N  0.49800032  0.38503511  0.21764683    -0.46800
C1849       C  0.64276073  0.51265501  0.30659709     0.42700
N1850       N  0.62734250  0.34854243  0.29181715    -0.46800
Co1851     Co  0.56088838  0.43140781  0.22955463     0.73900
C1852       C  0.62421488  0.47827613  0.21567870    -0.07100
C1853       C  0.49172249  0.02434350  0.28645336    -0.06700
N1854       N  0.60089436  0.39747299  0.30194860    -0.26200
N1855       N  0.49361848  0.02279744  0.23685109    -0.47000
H1856       H  0.62832862  0.04934928  0.27709497     0.06700
C1857       C  0.62820247  0.34699893  0.24257634    -0.07100
Cl1858     Cl  0.56128313  0.43394025  0.26565019    -0.50100
C1859       C  0.97751485  0.35819860  0.22355680     0.42400
H1860       H  0.63288749  0.40806483  0.32749595     0.06600
N1861       N  0.62570886  0.38666255  0.21753358    -0.46800
C1862       C  0.69737851  0.32049645  0.18363483     0.80100
N1863       N  0.67424356  0.34157865  0.19369606    -0.78300
C1864       C  0.67201581  0.33930501  0.21350711     0.82500
N1865       N  0.69248346  0.31553394  0.22325485    -0.78200
C1866       C  0.71607994  0.29491434  0.21350675     0.82600
N1867       N  0.71828971  0.29715727  0.19370222    -0.79900
C1868       C  0.92320780  0.04607869  0.34615755     0.80100
N1869       N  0.90267120  0.06925060  0.33592974    -0.78300
C1870       C  0.90839004  0.07433561  0.31657333     0.82500
N1871       N  0.93447480  0.05596201  0.30737505    -0.78200
C1872       C  0.44797691  0.03242363  0.31546952     0.82600
N1873       N  0.94914470  0.02723015  0.33686109    -0.79900
C1874       C  0.68775826  0.05117033  0.34677927     0.80100
N1875       N  0.71056789  0.07447599  0.33801216    -0.78300
C1876       C  0.71059238  0.07819922  0.31820059     0.82500
N1877       N  0.68738366  0.05904338  0.30722231    -0.78200
C1878       C  0.66541352  0.03506007  0.31589447     0.82600
N1879       N  0.66548371  0.03145014  0.33559817    -0.79900
C1880       C  0.70644382  0.04182799  0.18530978     0.80100
N1881       N  0.72393437  0.06753466  0.19540862    -0.78300
C1882       C  0.71427682  0.07534320  0.21407315     0.82500
N1883       N  0.68691439  0.05750904  0.22264266    -0.78200
C1884       C  0.66974260  0.03145800  0.21269442     0.82600
N1885       N  0.67941080  0.02384198  0.19405853    -0.79900
C1886       C  0.73688685  0.26679382  0.30886542     0.42300
N1887       N  0.74982848  0.22456296  0.28905673     0.01200
C1888       C  0.89945322  0.11792013  0.28762609    -0.06700
H1889       H  0.92351063  0.25465910  0.27810397     0.06700
C1890       C  0.85544991  0.24738937  0.21513823    -0.07000
Co1891     Co  0.81447417  0.18420160  0.30150935     0.74200
N1892       N  0.87769800  0.22214749  0.28498716    -0.26200
Co1893     Co  0.87620399  0.18317808  0.26337375     0.74100
C1894       C  0.88823881  0.26399530  0.22184669     0.42400
N1895       N  0.76980850  0.22360309  0.23072750     0.00800
N1896       N  0.87455386  0.22191602  0.24155451     0.00900
N1897       N  0.86003467  0.11941074  0.31280205    -0.47100
H1898       H  0.78519503  0.25431813  0.32846752     0.06700
N1899       N  0.85479695  0.22227337  0.29969871     0.01200
N1900       N  0.87327370  0.14389079  0.24181445     0.00900
C1901       C  0.88637268  0.10134240  0.22219462     0.42500
N1902       N  0.74693432  0.22435436  0.24544013    -0.25700
C1903       C  0.76601040  0.12112890  0.31568750    -0.06600
N1904       N  0.72617945  0.25001734  0.29244601    -0.46800
N1905       N  0.89700068  0.11847881  0.23851855    -0.47000
C1906       C  0.73297433  0.10510434  0.30867779     0.42300
N1907       N  0.85345855  0.14475742  0.29976646     0.01200
N1908       N  0.74505828  0.14683646  0.24554027    -0.25700
N1909       N  0.77535213  0.22358673  0.30232121    -0.26200
N1910       N  0.76841125  0.14622502  0.23105769     0.00800
H1911       H  0.69850663  0.11507055  0.25199738     0.06700
H1912       H  0.83835400  0.11380982  0.20238145     0.05500
N1913       N  0.87647136  0.14465737  0.28511420    -0.26200
N1914       N  0.84896780  0.22176998  0.22834440    -0.25900
N1915       N  0.74832967  0.14678009  0.28900424     0.01200
C1916       C  0.89010491  0.26555765  0.30570617     0.42600
C1917       C  0.72436216  0.25142608  0.24273314    -0.07100
N1918       N  0.84777019  0.14462416  0.22855239    -0.25900
H1919       H  0.83959108  0.25310429  0.20230533     0.06700
N1920       N  0.86167895  0.24750107  0.31266585    -0.47100
H1921       H  0.70189396  0.25787442  0.25200340     0.06700
C1922       C  0.73259224  0.10367807  0.22467636     0.42400
C1923       C  0.76937148  0.24926667  0.31554938    -0.06600
Co1924     Co  0.74687735  0.18568475  0.26726164     0.73800
N1925       N  0.76354293  0.24870232  0.21748366    -0.46800
C1926       C  0.88842875  0.10132503  0.30585959     0.42700
N1927       N  0.72351617  0.12244280  0.29220517    -0.46800
Co1928     Co  0.80862567  0.18402599  0.22926749     0.73900
C1929       C  0.85395487  0.11887188  0.21537936    -0.07100
C1930       C  0.90094406  0.24882356  0.28744645    -0.06700
N1931       N  0.77363640  0.14648615  0.30240265    -0.26200
N1932       N  0.89876182  0.24686221  0.23821378    -0.47000
H1933       H  0.92200923  0.11199574  0.27831421     0.06700
C1934       C  0.72134805  0.12065233  0.24281196    -0.07100
Cl1935     Cl  0.81152644  0.18425523  0.26538216    -0.50100
C1936       C  0.73550824  0.26744414  0.22429247     0.42400
H1937       H  0.78116438  0.11532090  0.32876488     0.06600
N1938       N  0.76173896  0.12095881  0.21810454    -0.46800
N1939       N  0.80990953  0.45701256  0.54812906    -0.36800
N1940       N  0.85302936  0.49441638  0.51925464    -0.57300
N1941       N  0.81918403  0.45160528  0.48903171    -0.36800
N1942       N  0.77963647  0.41127913  0.51752686    -0.57300
C1943       C  0.83256913  0.47533506  0.55981220     0.26800
C1944       C  0.79549941  0.43044655  0.55900922     0.26800
C1945       C  0.84670556  0.46628688  0.47918017     0.26800
C1946       C  0.80689969  0.42442400  0.47804775     0.26800
C1947       C  0.85905499  0.51572788  0.53476661     0.35400
C1948       C  0.86425744  0.51241141  0.50325000     0.35400
C1949       C  0.76066704  0.39918917  0.53292997     0.35400
C1950       C  0.76341151  0.39880677  0.50129817     0.35400
C1951       C  0.83219828  0.46050416  0.57841894    -0.22100
C1952       C  0.80874837  0.43243411  0.57796257    -0.22100
C1953       C  0.85226863  0.44790744  0.46182609    -0.22100
C1954       C  0.82695168  0.42156080  0.46107175    -0.22100
C1955       C  0.86711761  0.04585040  0.52689923    -0.23100
C1956       C  0.86761999  0.04553374  0.50677955    -0.23100
C1957       C  0.73279868  0.37797797  0.52646669    -0.23100
C1958       C  0.73423865  0.37820216  0.50634432    -0.23100
C1959       C  0.85255805  0.50594811  0.55442903    -0.18500
C1960       C  0.76939110  0.40555550  0.55270670    -0.18500
C1961       C  0.77608418  0.40430775  0.48212239    -0.18500
C1962       C  0.86349118  0.49867263  0.48407770    -0.18500
H1963       H  0.84707024  0.46916824  0.59110453     0.14400
H1964       H  0.80214981  0.41563066  0.59033779     0.14400
H1965       H  0.87169658  0.45375120  0.45052901     0.14400
H1966       H  0.82320121  0.40291576  0.44919614     0.14400
H1967       H  0.87794872  0.06656094  0.53612383     0.12700
H1968       H  0.87874420  0.06600558  0.49740536     0.12700
H1969       H  0.71351196  0.36372271  0.53530018     0.12700
H1970       H  0.71646274  0.36413216  0.49659788     0.12700
H1971       H  0.80322309  0.46342047  0.53376795     0.26000
H1972       H  0.80712595  0.46187257  0.50154082     0.26000
N1973       N  0.55964943  0.20221613  0.04784175    -0.36800
N1974       N  0.60370822  0.23882803  0.01877037    -0.57300
N1975       N  0.56511471  0.20115983  0.98853256    -0.36800
N1976       N  0.52492092  0.16061876  0.01724601    -0.57300
C1977       C  0.58527396  0.21685446  0.05924560     0.26800
C1978       C  0.54393294  0.17593483  0.05841871     0.26800
C1979       C  0.59220811  0.21562774  0.97817746     0.26800
C1980       C  0.55107402  0.17507455  0.97738144     0.26800
C1981       C  0.61258612  0.25789652  0.03473604     0.35400
C1982       C  0.61481598  0.25778695  0.00306397     0.35400
C1983       C  0.50487297  0.15017819  0.03262945     0.35400
C1984       C  0.50723065  0.15051404  0.00099329     0.35400
C1985       C  0.58567862  0.19974150  0.07727400    -0.22100
C1986       C  0.55963293  0.17400983  0.07675816    -0.22100
C1987       C  0.59556584  0.19837227  0.96032966    -0.22100
C1988       C  0.56956309  0.17275057  0.95982764    -0.22100
C1989       C  0.62991572  0.28895034  0.02915891    -0.23100
C1990       C  0.63134905  0.28884553  0.00901593    -0.23100
C1991       C  0.97280137  0.13237732  0.02888173    -0.23100
C1992       C  0.97319544  0.13156056  0.00870249    -0.23100
C1993       C  0.60710892  0.24641204  0.05422783    -0.18500
C1994       C  0.51459982  0.15479548  0.05240807    -0.18500
C1995       C  0.51988241  0.15572399  0.98177997    -0.18500
C1996       C  0.61158123  0.24624286  0.98354181    -0.18500
H1997       H  0.60292136  0.20526554  0.08957999     0.14400
H1998       H  0.55296122  0.15595334  0.08859159     0.14400
H1999       H  0.61427087  0.20420310  0.94867081     0.14400
H2000       H  0.56431041  0.15495381  0.94772958     0.14400
H2001       H  0.64062283  0.30938721  0.03860986     0.12700
H2002       H  0.64341716  0.30906017  0.99982826     0.12700
H2003       H  0.95162981  0.12258196  0.03823345     0.12700
H2004       H  0.95256315  0.12082653  0.99937865     0.12700
H2005       H  0.55189836  0.21105005  0.03415637     0.26000
H2006       H  0.55476323  0.21064058  0.00155007     0.26000
N2007       N  0.56931085  0.18598149  0.48097974    -0.36800
N2008       N  0.60730158  0.14598501  0.51080419    -0.57300
N2009       N  0.57098766  0.18832076  0.54054968    -0.36800
N2010       N  0.52956711  0.22495208  0.51100675    -0.57300
C2011       C  0.58352909  0.15931090  0.47021670     0.26800
C2012       C  0.54303671  0.20082298  0.47019883     0.26800
C2013       C  0.58701480  0.16322181  0.55168150     0.26800
C2014       C  0.54636284  0.20454598  0.55194064     0.26800
C2015       C  0.62555489  0.13502122  0.49492500     0.35400
C2016       C  0.62701097  0.13678513  0.52648367     0.35400
C2017       C  0.51812416  0.24271442  0.49501126     0.35400
C2018       C  0.51891644  0.24395198  0.52673949     0.35400
C2019       C  0.56626810  0.15736800  0.45231595    -0.22100
C2020       C  0.54076716  0.18359393  0.45228689    -0.22100
C2021       C  0.57254499  0.16362679  0.57038910    -0.22100
C2022       C  0.54714028  0.18975845  0.57059434    -0.22100
C2023       C  0.65685783  0.11832791  0.50050552    -0.23100
C2024       C  0.65777632  0.11945425  0.52061680    -0.23100
C2025       C  0.99664830  0.28027187  0.50221523    -0.23100
C2026       C  0.99697269  0.28068444  0.52233345    -0.23100
C2027       C  0.61311162  0.13815278  0.47559146    -0.18500
C2028       C  0.52250010  0.23087332  0.47553917    -0.18500
C2029       C  0.52480078  0.23381040  0.54641151    -0.18500
C2030       C  0.61626146  0.14185745  0.54600258    -0.18500
H2031       H  0.57173109  0.13918605  0.44041379     0.14400
H2032       H  0.52278031  0.18948861  0.44034439     0.14400
H2033       H  0.58000076  0.14731905  0.58280794     0.14400
H2034       H  0.53153183  0.19722274  0.58325605     0.14400
H2035       H  0.67676824  0.10644879  0.49108769     0.12700
H2036       H  0.67847906  0.10854801  0.52986157     0.12700
H2037       H  0.98276306  0.29897024  0.49287456     0.12700
H2038       H  0.98354313  0.29986743  0.53155001     0.12700
H2039       H  0.57851125  0.19510429  0.49431460     0.26000
H2040       H  0.57820981  0.19554018  0.52649560     0.26000
N2041       N  0.81800587  0.44096892  0.98360303    -0.36800
N2042       N  0.85705034  0.40004650  0.01274671    -0.57300
N2043       N  0.82103181  0.44107833  0.04258914    -0.36800
N2044       N  0.78548665  0.48526356  0.01376816    -0.57300
C2045       C  0.84224444  0.42397413  0.97227519     0.26800
C2046       C  0.80461077  0.46818092  0.97287996     0.26800
C2047       C  0.84676948  0.42457757  0.05297419     0.26800
C2048       C  0.80914615  0.46842644  0.05358777     0.26800
C2049       C  0.86441648  0.38027351  0.99681636     0.35400
C2050       C  0.86530770  0.37988506  0.02847285     0.35400
C2051       C  0.76603951  0.49591482  0.99824916     0.35400
C2052       C  0.76725956  0.49524070  0.02989019     0.35400
C2053       C  0.84416275  0.44056173  0.95412319    -0.22100
C2054       C  0.82046166  0.46842412  0.95451128    -0.22100
C2055       C  0.85162169  0.44191278  0.07069216    -0.22100
C2056       C  0.82766191  0.46952750  0.07112306    -0.22100
C2057       C  0.87804061  0.34749283  0.00239759    -0.23100
C2058       C  0.87848527  0.34720069  0.02256628    -0.23100
C2059       C  0.73503786  0.01419700  0.00363894    -0.23100
C2060       C  0.73599216  0.01389026  0.02382672    -0.23100
C2061       C  0.86101059  0.39257229  0.97739645    -0.18500
C2062       C  0.77633832  0.49092110  0.97857832    -0.18500
C2063       C  0.77915343  0.48944802  0.04915324    -0.18500
C2064       C  0.86252278  0.39174428  0.04795237    -0.18500
H2065       H  0.86058746  0.43308418  0.94175664     0.14400
H2066       H  0.81509231  0.48650936  0.94250662     0.14400
H2067       H  0.86958197  0.43453674  0.08240277     0.14400
H2068       H  0.82356543  0.48766785  0.08320328     0.14400
H2069       H  0.88689249  0.32619249  0.99292702     0.12700
H2070       H  0.88774505  0.32565134  0.03178919     0.12700
H2071       H  0.71438129  0.02583894  0.99463836     0.12700
H2072       H  0.71627705  0.02529175  0.03354056     0.12700
H2073       H  0.80922630  0.43294015  0.99730392     0.26000
H2074       H  0.80963307  0.43199146  0.02972604     0.26000
C2075       C  0.94702528  0.31877818  0.84656334     0.80100
N2076       N  0.96789268  0.34164725  0.83616045    -0.78300
C2077       C  0.96580736  0.34292839  0.81633752     0.82500
N2078       N  0.94234306  0.32176516  0.80684330    -0.78200
C2079       C  0.92217162  0.29820495  0.81701748     0.82600
N2080       N  0.92434737  0.29688798  0.83684206    -0.79900
C2081       C  0.95975526  0.09356566  0.84475658     0.80100
N2082       N  0.97899683  0.06835169  0.83513120    -0.78300
C2083       C  0.97307719  0.06210820  0.81583700     0.82500
N2084       N  0.94794610  0.08097401  0.80617404    -0.78200
C2085       C  0.92916104  0.10660238  0.81543471     0.82600
N2086       N  0.93500675  0.11287843  0.83473908    -0.79900
C2087       C  0.69288450  0.07919693  0.84751916     0.80100
N2088       N  0.71317440  0.10131243  0.83634305    -0.78300
C2089       C  0.71042441  0.10108117  0.81655452     0.82500
N2090       N  0.68737828  0.07849835  0.80780122    -0.78200
C2091       C  0.66581959  0.05740623  0.81875760     0.82600
N2092       N  0.66873744  0.05752522  0.83862747    -0.79900
C2093       C  0.67990623  0.31050215  0.84739828     0.80100
N2094       N  0.66113272  0.33606639  0.83784134    -0.78300
C2095       C  0.66650241  0.34213978  0.81846448     0.82500
N2096       N  0.69108823  0.32274866  0.80853876    -0.78200
C2097       C  0.70951010  0.29664523  0.81786365     0.82600
N2098       N  0.70386570  0.29060183  0.83725821    -0.79900
C2099       C  0.67673636  0.08653516  0.68299286     0.80100
N2100       N  0.70197859  0.10657053  0.69197675    -0.78300
C2101       C  0.70924628  0.10163888  0.71122949     0.82500
N2102       N  0.69142271  0.07638131  0.72151880    -0.78200
C2103       C  0.66555300  0.05691501  0.71279022     0.82600
N2104       N  0.65816278  0.06201254  0.69351744    -0.79900
C2105       C  0.94648285  0.07821744  0.67991330     0.80100
N2106       N  0.96852406  0.05618080  0.69012607    -0.78300
C2107       C  0.96836926  0.05611169  0.71004916     0.82500
N2108       N  0.94574725  0.07791005  0.71984736    -0.78200
C2109       C  0.92462582  0.10091783  0.70985800     0.82600
N2110       N  0.92496375  0.10086969  0.68998568    -0.79900
C2111       C  0.89600482  0.27655167  0.80674009     0.42300
N2112       N  0.85474542  0.26227310  0.78677347     0.01200
C2113       C  0.75217798  0.11031243  0.78646372    -0.06700
H2114       H  0.89119305  0.09040531  0.77743416     0.06700
C2115       C  0.88214663  0.15598973  0.71347194    -0.07000
Co2116     Co  0.81661100  0.19671375  0.79955493     0.74200
N2117       N  0.85680069  0.13485084  0.78388439    -0.26200
Co2118     Co  0.81818349  0.13478757  0.76198816     0.74100
C2119       C  0.89928125  0.12348421  0.72044571     0.42400
N2120       N  0.85547168  0.24284161  0.72854610     0.00800
N2121       N  0.85743036  0.13757152  0.74031293     0.00900
N2122       N  0.75356124  0.15021587  0.81124487    -0.47100
H2123       H  0.88436994  0.22855205  0.82675684     0.06700
N2124       N  0.85607800  0.15806136  0.79835741     0.01200
N2125       N  0.77958366  0.13629551  0.74011462     0.00900
C2126       C  0.73730313  0.12233089  0.72069045     0.42500
N2127       N  0.85478966  0.26584979  0.74313468    -0.25700
C2128       C  0.75234343  0.24223535  0.81359602    -0.06600
N2129       N  0.87937043  0.28668911  0.79015239    -0.46800
N2130       N  0.75455434  0.11212321  0.73705861    -0.47000
C2131       C  0.73558313  0.27517276  0.80709490     0.42300
N2132       N  0.77862578  0.15676652  0.79806988     0.01200
N2133       N  0.77715685  0.26353833  0.74345300    -0.25700
N2134       N  0.85429949  0.23696961  0.80022021    -0.26200
N2135       N  0.77787177  0.24089369  0.72870868     0.00800
H2136       H  0.74281734  0.30751999  0.75067004     0.06700
H2137       H  0.74815229  0.17064787  0.70072725     0.06700
N2138       N  0.77884466  0.13351156  0.78361913    -0.26200
N2139       N  0.85678040  0.16282920  0.72681327    -0.25900
N2140       N  0.77690749  0.26132054  0.78684468     0.01200
C2141       C  0.90056834  0.12469525  0.80481841     0.42600
C2142       C  0.88021649  0.29030218  0.74017579    -0.07100
N2143       N  0.77972443  0.16167466  0.72669871    -0.25900
H2144       H  0.88702343  0.17109792  0.70022719     0.06700
N2145       N  0.88161517  0.15268322  0.81141513    -0.47100
H2146       H  0.88518687  0.31324630  0.74930344     0.06700
C2147       C  0.73304138  0.27432550  0.72300596     0.42400
C2148       C  0.87929623  0.24390720  0.81363288    -0.06600
Co2149     Co  0.81594573  0.26391103  0.76501979     0.73800
N2150       N  0.87996966  0.25078531  0.71517817    -0.46800
C2151       C  0.73549886  0.12165943  0.80471000     0.42700
N2152       N  0.75221549  0.28562446  0.79050575    -0.46800
Co2153     Co  0.81755299  0.20217073  0.72722873     0.73900
C2154       C  0.75396770  0.15498267  0.71364372    -0.07100
C2155       C  0.88427910  0.11274912  0.78663986    -0.06700
N2156       N  0.77752340  0.23576330  0.80012875    -0.26200
N2157       N  0.88238700  0.11341458  0.73700129    -0.47000
H2158       H  0.74642099  0.08739502  0.77745501     0.06700
C2159       C  0.74947104  0.28543583  0.74122155    -0.07100
Cl2160     Cl  0.81714770  0.19939344  0.76342665    -0.50100
C2161       C  0.89669000  0.28034519  0.72166934     0.42400
H2162       H  0.74757795  0.22674703  0.82672099     0.06600
N2163       N  0.75224434  0.24693952  0.71578239    -0.46800
C2164       C  0.95572323  0.31411337  0.68208290     0.80100
N2165       N  0.93006003  0.29512808  0.69160736    -0.78300
C2166       C  0.92425262  0.30049748  0.71106326     0.82500
N2167       N  0.94369104  0.32531848  0.72078913    -0.78200
C2168       C  0.96963898  0.34381851  0.71136128     0.82600
N2169       N  0.97575179  0.33791220  0.69209474    -0.79900
C2170       C  0.68733268  0.32042554  0.68251677     0.80100
N2171       N  0.70789629  0.29657756  0.69233042    -0.78300
C2172       C  0.70694341  0.29532321  0.71219000     0.82500
N2173       N  0.68589905  0.31829913  0.72219453    -0.78200
C2174       C  0.66464794  0.34147460  0.71251404     0.82600
N2175       N  0.66576221  0.34284317  0.69269523    -0.79900
C2176       C  0.64515058  0.36901424  0.80830238     0.42300
N2177       N  0.62978389  0.40988395  0.78818969     0.01200
C2178       C  0.97937045  0.01661320  0.78749637    -0.06700
H2179       H  0.95293150  0.38126875  0.77787138     0.06700
C2180       C  0.52416345  0.38586639  0.71427966    -0.07000
Co2181     Co  0.56370538  0.44714920  0.80109941     0.74200
N2182       N  0.50169820  0.40816916  0.78425085    -0.26200
Co2183     Co  0.00189956  0.45181196  0.76304482     0.74100
C2184       C  0.99037803  0.37092916  0.72163195     0.42400
N2185       N  0.60952756  0.41132173  0.73001519     0.00800
N2186       N  0.50434668  0.41039940  0.74081368     0.00900
N2187       N  0.51784751  0.01305707  0.81420677    -0.47100
H2188       H  0.59644932  0.37914588  0.82804339     0.06700
N2189       N  0.52468950  0.40776389  0.79887133     0.01200
N2190       N  0.00557265  0.49159232  0.74171417     0.00900
C2191       C  0.99047315  0.03067971  0.72097627     0.42500
N2192       N  0.63241286  0.41087840  0.74468035    -0.25700
C2193       C  0.61109017  0.01405397  0.81598878    -0.06600
N2194       N  0.65494151  0.38600443  0.79172529    -0.46800
N2195       N  0.98012162  0.01428516  0.73767140    -0.47000
C2196       C  0.64347761  0.03116378  0.80884869     0.42300
N2197       N  0.52356758  0.48521884  0.80025470     0.01200
N2198       N  0.63206467  0.48850321  0.74511874    -0.25700
N2199       N  0.60423099  0.40951695  0.80148777    -0.26200
N2200       N  0.60899777  0.48868639  0.73056962     0.00800
H2201       H  0.68097633  0.01909497  0.75137118     0.06700
H2202       H  0.54145802  0.01997424  0.70306708     0.06700
N2203       N  0.00162274  0.48975949  0.78512302    -0.26200
N2204       N  0.53012148  0.41126799  0.72765821    -0.25900
N2205       N  0.62818765  0.48754675  0.78856470     0.01200
C2206       C  0.49066240  0.36310625  0.80423708     0.42600
C2207       C  0.65545926  0.38417973  0.74194899    -0.07100
N2208       N  0.52986163  0.48853698  0.72869271    -0.25900
H2209       H  0.54024322  0.38082556  0.70142475     0.06700
N2210       N  0.51856324  0.38153390  0.81144715    -0.47100
H2211       H  0.67795835  0.37794337  0.75120825     0.06700
C2212       C  0.64683413  0.02949775  0.72397911     0.42400
C2213       C  0.61171457  0.38457857  0.81491985    -0.06600
Co2214     Co  0.63123896  0.44921170  0.76663010     0.73800
N2215       N  0.61631330  0.38651684  0.71675624    -0.46800
C2216       C  0.99097839  0.03300724  0.80567836     0.42700
N2217       N  0.65369335  0.01399029  0.79245341    -0.46800
Co2218     Co  0.56970361  0.44993744  0.72881854     0.73900
C2219       C  0.52568670  0.01511544  0.71607737    -0.07100
C2220       C  0.97578497  0.38634664  0.78706912    -0.06700
N2221       N  0.60307302  0.48628698  0.80212185    -0.26200
N2222       N  0.97950601  0.38831946  0.73782584    -0.47000
H2223       H  0.95747477  0.02371451  0.77798983     0.06700
C2224       C  0.65789146  0.01347050  0.74244865    -0.07100
Cl2225     Cl  0.56664746  0.44863620  0.76494116    -0.50100
C2226       C  0.64461063  0.36812918  0.72353397     0.42400
H2227       H  0.59561833  0.01947388  0.82902027     0.06600
N2228       N  0.61759566  0.01213371  0.71779496    -0.46800
C2229       C  0.70116125  0.07444443  0.86866676    -0.20000
C2230       C  0.73671917  0.07610410  0.87561117     0.36200
C2231       C  0.74405425  0.06724527  0.89520686    -0.26000
C2232       C  0.71694775  0.05630150  0.90800382     0.02600
C2233       C  0.68140510  0.05664234  0.90145155     0.27400
C2234       C  0.67380637  0.06534584  0.88184613    -0.25100
N2235       N  0.76559168  0.08490927  0.86258260    -0.82500
H2236       H  0.77139732  0.06700365  0.90026462     0.13200
C2237       C  0.72709474  0.04141354  0.92742408     0.02600
N2238       N  0.65302095  0.04803663  0.91467810    -0.81100
H2239       H  0.64644786  0.06448607  0.87684261     0.18000
C2240       C  0.74674249  0.06226022  0.94061474    -0.25900
C2241       C  0.76138171  0.04730814  0.95764884     0.36100
C2242       C  0.75552728  0.50808083  0.96265690    -0.20000
C2243       C  0.73685224  0.48585859  0.94981688    -0.25200
C2244       C  0.72274630  0.49907592  0.93230653     0.27500
H2245       H  0.75174961  0.09004206  0.93729346     0.13200
N2246       N  0.78257294  0.06942058  0.97008948    -0.82500
H2247       H  0.73551134  0.45750638  0.95273878     0.18100
N2248       N  0.70853416  0.47470312  0.91824670    -0.81100
H2249       H  0.77103980  0.06970996  0.98402602     0.33700
H2250       H  0.80798410  0.05826345  0.97118742     0.38200
H2251       H  0.72852201  0.45647785  0.91461034     0.33700
H2252       H  0.68774236  0.46062007  0.92489720     0.30400
H2253       H  0.63575883  0.06984672  0.91525366     0.33700
H2254       H  0.64365368  0.50563999  0.90561602     0.30400
H2255       H  0.76783363  0.06430593  0.85239014     0.38200
H2256       H  0.78977556  0.08575160  0.87013196     0.33700
C2257       C  0.94367781  0.32287643  0.86807354    -0.20000
C2258       C  0.93165572  0.29492394  0.88026247     0.36200
C2259       C  0.92231906  0.30198781  0.89980248    -0.26000
C2260       C  0.92403029  0.33670917  0.90727778     0.02600
C2261       C  0.93736115  0.36443955  0.89534019     0.27400
C2262       C  0.94784800  0.35703133  0.87605881    -0.25100
N2263       N  0.92833415  0.25949341  0.87279198    -0.82500
H2264       H  0.91244608  0.28053069  0.90896491     0.13200
C2265       C  0.90904890  0.34475643  0.92690754     0.02600
N2266       N  0.93832625  0.40041519  0.90248644    -0.81100
H2267       H  0.95677022  0.37875990  0.86680684     0.18000
C2268       C  0.93045019  0.36204171  0.94078063    -0.25900
C2269       C  0.91566596  0.37616976  0.95787427     0.36100
C2270       C  0.87880085  0.37254213  0.96141594    -0.20000
C2271       C  0.85779642  0.35316273  0.94825844    -0.25200
C2272       C  0.87252316  0.33927501  0.93095191     0.27500
H2273       H  0.95853175  0.36610736  0.93781673     0.13200
N2274       N  0.93827241  0.39561924  0.97089896    -0.82500
H2275       H  0.82949864  0.35047540  0.95105444     0.18100
N2276       N  0.85024787  0.32110606  0.91708789    -0.81100
H2277       H  0.93746478  0.38335707  0.98464828     0.33700
H2278       H  0.92829882  0.42146156  0.97226695     0.38200
H2279       H  0.82416399  0.31908367  0.92237641     0.33700
H2280       H  0.84910714  0.33669450  0.90440008     0.30400
H2281       H  0.94884121  0.41763666  0.89189349     0.33700
H2282       H  0.91203632  0.40849962  0.90489714     0.30400
H2283       H  0.94406991  0.24267133  0.88139156     0.38200
H2284       H  0.90179013  0.25154359  0.87441011     0.33700
C2285       C  0.67173042  0.08943538  0.66163673    -0.20000
C2286       C  0.70143744  0.09099492  0.64894707     0.36200
C2287       C  0.69605899  0.09516963  0.62876451    -0.26000
C2288       C  0.66165299  0.09756664  0.62104471     0.02600
C2289       C  0.63184252  0.09498215  0.63361982     0.27400
C2290       C  0.63721029  0.09048393  0.65384259    -0.25100
N2291       N  0.73694815  0.08784426  0.65659737    -0.82500
H2292       H  0.71876601  0.09683958  0.61897887     0.13200
C2293       C  0.65709728  0.10520515  0.59995935     0.02600
N2294       N  0.59637328  0.09782814  0.62584194    -0.81100
H2295       H  0.61447962  0.08894808  0.66361586     0.18000
C2296       C  0.63759549  0.08148457  0.58832855    -0.25900
C2297       C  0.62689412  0.09102121  0.56941532     0.36100
C2298       C  0.63663934  0.12482469  0.56196709    -0.20000
C2299       C  0.65932930  0.14682976  0.57279720    -0.25200
C2300       C  0.66926972  0.13762411  0.59190285     0.27500
H2301       H  0.62887189  0.05626870  0.59442520     0.13200
N2302       N  0.60455901  0.06680435  0.55874428    -0.82500
H2303       H  0.66639554  0.17279923  0.56701375     0.18100
N2304       N  0.68959604  0.16207427  0.60358464    -0.81100
H2305       H  0.58033122  0.06480574  0.56624703     0.33700
H2306       H  0.59885724  0.07632394  0.54472914     0.38200
H2307       H  0.69644479  0.18465774  0.59541895     0.33700
H2308       H  0.67320616  0.17082260  0.61499567     0.30400
H2309       H  0.57745922  0.09527339  0.63700745     0.33700
H2310       H  0.59347576  0.12348799  0.62007077     0.30400
H2311       H  0.74701522  0.62153138  0.65123453     0.38200
H2312       H  0.74981024  0.57719493  0.64723798     0.33700
C2313       C  0.50784662  0.25429860  0.56256291    -0.20000
C2314       C  0.52566182  0.28312435  0.57158042     0.36200
C2315       C  0.01429533  0.30656392  0.59044640    -0.26000
C2316       C  0.98488012  0.29115624  0.59999867     0.02600
C2317       C  0.96500139  0.26455028  0.59033992     0.27400
C2318       C  0.97680242  0.25184982  0.57213125    -0.25100
N2319       N  0.55676363  0.29953428  0.56314372    -0.82500
H2320       H  0.02918214  0.32754240  0.59759534     0.13200
C2321       C  0.97797670  0.29969033  0.62092140     0.02600
N2322       N  0.93425315  0.24895885  0.59957546    -0.81100
H2323       H  0.96300002  0.22986129  0.56524922     0.18000
C2324       C  0.94372111  0.30995716  0.62700942    -0.25900
C2325       C  0.93570792  0.31411830  0.64697095     0.36100
C2326       C  0.96254777  0.30901851  0.66104068    -0.20000
C2327       C  0.99711286  0.30041196  0.65496756    -0.25200
C2328       C  0.00497029  0.29483323  0.63510834     0.27500
H2329       H  0.92295027  0.31409483  0.61624757     0.13200
N2330       N  0.90049394  0.32406238  0.65289130    -0.82500
H2331       H  0.01777262  0.29685729  0.66586312     0.18100
N2332       N  0.54226929  0.27586098  0.62931153    -0.81100
H2333       H  0.88280096  0.30478022  0.64770727     0.33700
H2334       H  0.89423024  0.34823764  0.64610565     0.38200
H2335       H  0.55944318  0.27651144  0.64133685     0.33700
H2336       H  0.54124761  0.24938048  0.62466127     0.30400
H2337       H  0.92256306  0.22998018  0.59044268     0.33700
H2338       H  0.94290496  0.23535912  0.61206493     0.30400
H2339       H  0.56320014  0.28855958  0.54957638     0.38200
H2340       H  0.55066688  0.32626917  0.56051495     0.33700
C2341       C  0.62737988  0.26720200  0.96726979    -0.20000
C2342       C  0.66279993  0.26161013  0.96134482     0.36200
C2343       C  0.67397021  0.27324257  0.94274256    -0.26000
C2344       C  0.64999787  0.28997409  0.92988668     0.02600
C2345       C  0.61491345  0.29680956  0.93623578     0.27400
C2346       C  0.60411401  0.28592056  0.95495893    -0.25100
N2347       N  0.68665612  0.24205627  0.97365903    -0.82500
H2348       H  0.70090642  0.26762479  0.93793763     0.13200
C2349       C  0.66045528  0.29618005  0.90917837     0.02600
N2350       N  0.58940504  0.31231578  0.92318438    -0.81100
H2351       H  0.57654244  0.28943476  0.95928244     0.18000
C2352       C  0.67035786  0.26695175  0.89762677    -0.25900
C2353       C  0.67706669  0.27084094  0.87745356     0.36100
C2354       C  0.67426340  0.30488990  0.86870665    -0.20000
C2355       C  0.66524799  0.33423460  0.88045960    -0.25200
C2356       C  0.65851449  0.33016940  0.90055522     0.27500
H2357       H  0.67157389  0.24074248  0.90426487     0.13200
N2358       N  0.68546566  0.24017172  0.86577658    -0.82500
H2359       H  0.66347810  0.36058286  0.87403378     0.18100
N2360       N  0.64988612  0.36063667  0.91220059    -0.81100
H2361       H  0.66446006  0.23632841  0.85598193     0.33700
H2362       H  0.68670885  0.21727307  0.87449593     0.38200
H2363       H  0.67091584  0.37877235  0.91108493     0.33700
H2364       H  0.62722329  0.37261866  0.90622476     0.30400
H2365       H  0.56839142  0.29429770  0.92148109     0.33700
H2366       H  0.57926460  0.33524929  0.92977983     0.30400
H2367       H  0.69522833  0.21960967  0.96596768     0.38200
H2368       H  0.70886959  0.25808843  0.97635896     0.33700
C2369       C  0.49933253  0.14213973  0.96489850    -0.20000
C2370       C  0.00021631  0.09971431  0.96040398     0.36200
C2371       C  0.99166625  0.09132001  0.94094207    -0.26000
C2372       C  0.98038978  0.11770837  0.92768665     0.02600
C2373       C  0.97511372  0.15295052  0.93452160     0.27400
C2374       C  0.48357924  0.16708931  0.95230341    -0.25100
N2375       N  0.01446088  0.07210687  0.97272222    -0.82500
H2376       H  0.99527421  0.06423529  0.93589108     0.13200
C2377       C  0.97490948  0.10820084  0.90681379     0.02600
N2378       N  0.45936398  0.18454434  0.92077850    -0.81100
H2379       H  0.48303170  0.19496448  0.95635990     0.18000
C2380       C  0.94116969  0.11313449  0.89852495    -0.25900
C2381       C  0.93551019  0.10854282  0.87837960     0.36100
C2382       C  0.96424503  0.09817456  0.86622115    -0.20000
C2383       C  0.99757020  0.09113340  0.87478349    -0.25200
C2384       C  0.00327423  0.09622386  0.89494686     0.27500
H2385       H  0.91934572  0.12160166  0.90782004     0.13200
N2386       N  0.90057884  0.11406319  0.87034126    -0.82500
H2387       H  0.01952701  0.08254254  0.86562800     0.18100
N2388       N  0.03780247  0.08983960  0.90333826    -0.81100
H2389       H  0.88272470  0.12222076  0.88121391     0.33700
H2390       H  0.89139078  0.08948944  0.86528702     0.38200
H2391       H  0.05561376  0.08074575  0.89266763     0.33700
H2392       H  0.54040095  0.12296640  0.90794594     0.30400
H2393       H  0.47498456  0.18412661  0.90808113     0.33700
H2394       H  0.96519152  0.17487978  0.90715606     0.30400
H2395       H  0.01985740  0.08148089  0.98677228     0.38200
H2396       H  0.99471430  0.05268024  0.97433993     0.33700
C2397       C  0.87049896  0.52656878  0.57023076    -0.20000
C2398       C  0.84647680  0.03973158  0.58315851     0.36200
C2399       C  0.86446826  0.05435690  0.59913948    -0.26000
C2400       C  0.90182437  0.05323737  0.60035192     0.02600
C2401       C  0.92149951  0.03888081  0.58458722     0.27400
C2402       C  0.90744837  0.52327019  0.57250307    -0.25100
N2403       N  0.80838102  0.04194620  0.58268862    -0.82500
H2404       H  0.84901087  0.06529903  0.61110997     0.13200
C2405       C  0.91926665  0.06333527  0.61912092     0.02600
N2406       N  0.95976283  0.03944969  0.58495684    -0.81100
H2407       H  0.92242281  0.50770932  0.56198978     0.18000
C2408       C  0.94073096  0.03821953  0.62872118    -0.25900
C2409       C  0.95224900  0.04354462  0.64803438     0.36100
C2410       C  0.94185826  0.07458008  0.65826222    -0.20000
C2411       C  0.92270402  0.10095967  0.64802332    -0.25200
C2412       C  0.91147139  0.09573406  0.62858426     0.27500
H2413       H  0.94652914  0.51645602  0.62579453     0.13200
N2414       N  0.97292439  0.01637368  0.65738191    -0.82500
H2415       H  0.91529826  0.12533223  0.65541997     0.18100
N2416       N  0.89132982  0.12275611  0.61859257    -0.81100
H2417       H  0.99619587  0.51601867  0.65288701     0.33700
H2418       H  0.95832544  0.99267282  0.65713245     0.38200
H2419       H  0.88760496  0.14489424  0.62760942     0.33700
H2420       H  0.90650406  0.13138694  0.60663103     0.30400
H2421       H  0.97016956  0.02773696  0.57230280     0.33700
H2422       H  0.96775441  0.06610549  0.58472246     0.30400
H2423       H  0.80992693  0.56573495  0.56751250     0.38200
H2424       H  0.79772650  0.01627060  0.58278524     0.33700
C2425       C  0.69438786  0.32767811  0.66166788    -0.20000
C2426       C  0.69788959  0.30033184  0.64768860     0.36200
C2427       C  0.70680598  0.30925136  0.62823802    -0.26000
C2428       C  0.71327654  0.34478688  0.62285048     0.02600
C2429       C  0.71103009  0.37183405  0.63708008     0.27400
C2430       C  0.70072968  0.36308844  0.65617815    -0.25100
N2431       N  0.69246947  0.26382967  0.65329944    -0.82500
H2432       H  0.70902119  0.28853363  0.61729850     0.13200
C2433       C  0.72386310  0.35397944  0.60256323     0.02600
N2434       N  0.72030453  0.40795696  0.63218211    -0.81100
H2435       H  0.69923504  0.38391510  0.66710215     0.18000
C2436       C  0.70418136  0.37996497  0.59248942    -0.25900
C2437       C  0.71766444  0.39598603  0.57545832     0.36100
C2438       C  0.75072293  0.38459709  0.56800902    -0.20000
C2439       C  0.76861912  0.35606686  0.57688783    -0.25200
C2440       C  0.75594028  0.34114923  0.59444174     0.27500
H2441       H  0.67940771  0.38948318  0.59873809     0.13200
N2442       N  0.69923784  0.42535006  0.56650522    -0.82500
H2443       H  0.79403376  0.34757033  0.57098313     0.18100
N2444       N  0.77659848  0.31480778  0.60466338    -0.81100
H2445       H  0.67611048  0.43143090  0.57436068     0.33700
H2446       H  0.69089536  0.41729200  0.55262447     0.38200
H2447       H  0.79950690  0.30838804  0.59669306     0.33700
H2448       H  0.78528097  0.32615859  0.61778064     0.30400
H2449       H  0.71738458  0.42456247  0.64433702     0.33700
H2450       H  0.74735260  0.40834382  0.62847846     0.30400
H2451       H  0.66585092  0.26105203  0.65754885     0.38200
H2452       H  0.69629691  0.24701525  0.64129865     0.33700
C2453       C  0.75839015  0.50335476  0.06589633    -0.20000
C2454       C  0.73561301  0.48048463  0.07654785     0.36200
C2455       C  0.72211135  0.49136740  0.09459679    -0.26000
C2456       C  0.73545982  0.02053315  0.10321020     0.02600
C2457       C  0.75355647  0.04631909  0.09185101     0.27400
C2458       C  0.76498535  0.03753479  0.07285524    -0.25100
N2459       N  0.72697845  0.44553277  0.06967507    -0.82500
H2460       H  0.70633557  0.47280978  0.10316279     0.13200
C2461       C  0.72757534  0.02650019  0.12417119     0.02600
N2462       N  0.76123665  0.08075245  0.09992993    -0.81100
H2463       H  0.78086107  0.05626761  0.06447183     0.18000
C2464       C  0.75581881  0.03353806  0.13703259    -0.25900
C2465       C  0.74979799  0.03761894  0.15719780     0.36100
C2466       C  0.71470998  0.03527027  0.16450439    -0.20000
C2467       C  0.68662922  0.02733011  0.15167853    -0.25200
C2468       C  0.69270611  0.02289247  0.13157149     0.27500
H2469       H  0.78274898  0.03504553  0.13134155     0.13200
N2470       N  0.77917760  0.04320795  0.17030873    -0.82500
H2471       H  0.65968839  0.02532556  0.15729645     0.18100
N2472       N  0.66365491  0.01491690  0.11861221    -0.81100
H2473       H  0.80320379  0.04397974  0.16257604     0.33700
H2474       H  0.78057732  0.02109093  0.17961855     0.38200
H2475       H  0.63975468  0.01280677  0.12641403     0.33700
H2476       H  0.66081494  0.03642454  0.10899564     0.30400
H2477       H  0.77498954  0.09645376  0.08975189     0.33700
H2478       H  0.73691420  0.09342911  0.10253937     0.30400
H2479       H  0.71541383  0.44796388  0.05582057     0.38200
H2480       H  0.75046524  0.43083780  0.06831433     0.33700
C2481       C  0.68177380  0.05241724  0.36811243    -0.20000
C2482       C  0.70978053  0.05792526  0.38148855     0.36200
C2483       C  0.70163451  0.06517479  0.40119840    -0.26000
C2484       C  0.66611838  0.06699948  0.40758601     0.02600
C2485       C  0.63838076  0.05982301  0.39436956     0.27400
C2486       C  0.64643104  0.05196556  0.37488643    -0.25100
N2487       N  0.74615088  0.05695008  0.37492171    -0.82500
H2488       H  0.72287269  0.07092348  0.41143715     0.13200
C2489       C  0.65787622  0.08239046  0.42692045     0.02600
N2490       N  0.60191502  0.06315240  0.40033819    -0.81100
H2491       H  0.62464030  0.04809182  0.36472268     0.18000
C2492       C  0.66661032  0.11818507  0.43010166    -0.25900
C2493       C  0.65341516  0.13625589  0.44644439     0.36100
C2494       C  0.63160930  0.11819843  0.45994120    -0.20000
C2495       C  0.62468623  0.08179437  0.45748995    -0.25200
C2496       C  0.63758467  0.06375200  0.44097052     0.27500
H2497       H  0.68207010  0.13269821  0.41928634     0.13200
N2498       N  0.66105216  0.17330061  0.44899063    -0.82500
H2499       H  0.60797146  0.06784297  0.46794970     0.18100
N2500       N  0.62930242  0.02689585  0.43818474    -0.81100
H2501       H  0.65174461  0.18698709  0.43666949     0.33700
H2502       H  0.68870808  0.17635541  0.44955109     0.38200
H2503       H  0.63907497  0.01271313  0.45021747     0.33700
H2504       H  0.60157939  0.02418100  0.43807986     0.30400
H2505       H  0.58991493  0.08269499  0.39163778     0.33700
H2506       H  0.58911960  0.03895943  0.39760492     0.30400
H2507       H  0.75135865  0.03109614  0.37006738     0.38200
H2508       H  0.76348375  0.06169512  0.38659255     0.33700
C2509       C  0.91728161  0.04250587  0.36728912    -0.20000
C2510       C  0.94417351  0.05057501  0.38087431     0.36200
C2511       C  0.93626925  0.05027731  0.40096766    -0.26000
C2512       C  0.90193457  0.04155607  0.40763609     0.02600
C2513       C  0.87506718  0.03310464  0.39390717     0.27400
C2514       C  0.88295427  0.03428074  0.37386582    -0.25100
N2515       N  0.97908626  0.06030080  0.37427338    -0.82500
H2516       H  0.95693017  0.05699126  0.41138117     0.13200
C2517       C  0.89436739  0.03934591  0.42892272     0.02600
N2518       N  0.89617202  0.47838381  0.40527335    -0.81100
H2519       H  0.86229539  0.02846395  0.36327599     0.18000
C2520       C  0.86454351  0.05732330  0.43644844    -0.25900
C2521       C  0.85031144  0.04804936  0.45465265     0.36100
C2522       C  0.87766587  0.51979466  0.46744732    -0.20000
C2523       C  0.91389175  0.51736280  0.46257268    -0.25200
C2524       C  0.91329125  0.01546116  0.44106466     0.27500
H2525       H  0.85045315  0.07638882  0.42738828     0.13200
N2526       N  0.81743071  0.06392762  0.46072524    -0.82500
H2527       H  0.93220026  0.50524149  0.47286084     0.18100
N2528       N  0.94456466  0.99760575  0.43391118    -0.81100
H2529       H  0.79836729  0.04385444  0.46240379     0.33700
H2530       H  0.81467597  0.55464489  0.47165695     0.38200
H2531       H  0.97757387  0.51466179  0.45046215     0.33700
H2532       H  0.93673753  0.98093790  0.42246554     0.30400
H2533       H  0.89389442  0.45904270  0.39436976     0.33700
H2534       H  0.91644235  0.46985855  0.41462927     0.30400
H2535       H  0.98470539  0.08583323  0.37949933     0.38200
H2536       H  0.99732983  0.04267024  0.38056110     0.33700
C2537       C  0.62567849  0.26557348  0.07036250    -0.20000
C2538       C  0.66316551  0.26522848  0.07206969     0.36200
C2539       C  0.67924185  0.28066841  0.08859753    -0.26000
C2540       C  0.65852527  0.29575006  0.10357313     0.02600
C2541       C  0.62127974  0.29763174  0.10129660     0.27400
C2542       C  0.60521444  0.28266711  0.08473634    -0.25100
N2543       N  0.68459675  0.24829467  0.05732998    -0.82500
H2544       H  0.70790548  0.27945703  0.09029026     0.13200
C2545       C  0.67517854  0.30469076  0.12265928     0.02600
N2546       N  0.59951775  0.31316089  0.11625500    -0.81100
H2547       H  0.57645664  0.28323674  0.08341844     0.18000
C2548       C  0.67100324  0.33876039  0.13075328    -0.25900
C2549       C  0.68061204  0.34562104  0.15033024     0.36100
C2550       C  0.69458074  0.31772737  0.16198035    -0.20000
C2551       C  0.70159467  0.28466886  0.15321169    -0.25200
C2552       C  0.69167805  0.27785746  0.13383902     0.27500
H2553       H  0.65890394  0.35959195  0.12201033     0.13200
N2554       N  0.67536672  0.38043539  0.15852216    -0.82500
H2555       H  0.71244577  0.26295637  0.16179968     0.18100
N2556       N  0.69617295  0.24280830  0.12599891    -0.81100
H2557       H  0.66472656  0.39774057  0.14808740     0.33700
H2558       H  0.70048810  0.39050708  0.16221585     0.38200
H2559       H  0.72323681  0.23637610  0.12665815     0.33700
H2560       H  0.68227616  0.22491889  0.13494127     0.30400
H2561       H  0.58483021  0.33385093  0.10992270     0.33700
H2562       H  0.58161517  0.29383041  0.12122162     0.30400
H2563       H  0.71166265  0.25062432  0.06069968     0.38200
H2564       H  0.67860496  0.22113517  0.05755836     0.33700
C2565       C  0.49408020  0.13557595  0.06782299    -0.20000
C2566       C  0.97857652  0.15423368  0.08511395     0.36200
C2567       C  0.96379591  0.13626204  0.10129727    -0.26000
C2568       C  0.96596215  0.09910094  0.10293442     0.02600
C2569       C  0.48137803  0.08008705  0.08524290     0.27400
C2570       C  0.49647602  0.09838747  0.06924129    -0.25100
N2571       N  0.97722163  0.19241538  0.08395957    -0.82500
H2572       H  0.95185472  0.15138497  0.11309771     0.13200
C2573       C  0.95547129  0.08207210  0.12173352     0.02600
N2574       N  0.48413502  0.04201598  0.08665986    -0.81100
H2575       H  0.51114625  0.08383174  0.05817890     0.18000
C2576       C  0.92024983  0.08469135  0.12854149    -0.25900
C2577       C  0.91111009  0.07375138  0.14764718     0.36100
C2578       C  0.93760968  0.05998128  0.16021014    -0.20000
C2579       C  0.97235745  0.05561519  0.15287824    -0.25200
C2580       C  0.98154253  0.06700498  0.13398223     0.27500
H2581       H  0.90001490  0.09626329  0.11919383     0.13200
N2582       N  0.87503648  0.07696662  0.15424490    -0.82500
H2583       H  0.99327859  0.04548220  0.16226784     0.18100
N2584       N  0.51593968  0.06346385  0.12452949    -0.81100
H2585       H  0.85891621  0.06231550  0.14474428     0.33700
H2586       H  0.86761885  0.10370983  0.15313140     0.38200
H2587       H  0.53237795  0.07760159  0.13408707     0.33700
H2588       H  0.52296472  0.03656540  0.12535972     0.30400
H2589       H  0.45833561  0.03164547  0.08615464     0.33700
H2590       H  0.49776187  0.03176755  0.07454215     0.30400
H2591       H  0.96198214  0.19911620  0.07169098     0.38200
H2592       H  0.96402591  0.20290110  0.09613660     0.33700
C2593       C  0.75636049  0.38961805  0.46514373    -0.20000
C2594       C  0.73689821  0.41268241  0.45288824     0.36200
C2595       C  0.72492385  0.40043650  0.43464845    -0.26000
C2596       C  0.73112879  0.36521181  0.42868425     0.02600
C2597       C  0.74787841  0.34131763  0.44182811     0.27400
C2598       C  0.76082262  0.35393822  0.45984338    -0.25100
N2599       N  0.73085697  0.44892706  0.45872695    -0.82500
H2600       H  0.71226218  0.41897016  0.42468290     0.13200
C2601       C  0.72344326  0.35486697  0.40803014     0.02600
N2602       N  0.75247926  0.30458513  0.43657533    -0.81100
H2603       H  0.77557854  0.33633548  0.46944947     0.18000
C2604       C  0.75072365  0.33927380  0.39687126    -0.25900
C2605       C  0.74591898  0.33081419  0.37702184     0.36100
C2606       C  0.71299193  0.33840425  0.36790605    -0.20000
C2607       C  0.68573978  0.35431666  0.37905618    -0.25200
C2608       C  0.69048271  0.36238355  0.39899349     0.27500
H2609       H  0.77642044  0.33452287  0.40357190     0.13200
N2610       N  0.77474419  0.31535884  0.36607253    -0.82500
H2611       H  0.66031979  0.36006686  0.37227503     0.18100
N2612       N  0.66192177  0.37802390  0.41007912    -0.81100
H2613       H  0.79678079  0.31079737  0.37507429     0.33700
H2614       H  0.78278017  0.33401687  0.35556691     0.38200
H2615       H  0.63959034  0.38215380  0.40123119     0.33700
H2616       H  0.65439538  0.35974011  0.42088693     0.30400
H2617       H  0.76553896  0.29069456  0.44773840     0.33700
H2618       H  0.72713047  0.29331387  0.43530777     0.30400
H2619       H  0.71497929  0.44835054  0.47132393     0.38200
H2620       H  0.71628116  0.46255186  0.44804217     0.33700
C2621       C  0.92031183  0.32703474  0.16149732    -0.20000
C2622       C  0.91486343  0.29772894  0.14889076     0.36200
C2623       C  0.91014443  0.30375793  0.12875525    -0.26000
C2624       C  0.91075375  0.33832146  0.12107740     0.02600
C2625       C  0.91633335  0.36759116  0.13359768     0.27400
C2626       C  0.92174930  0.36155055  0.15365449    -0.25100
N2627       N  0.91403542  0.26204471  0.15655007    -0.82500
H2628       H  0.90507118  0.28156064  0.11904822     0.13200
C2629       C  0.89999697  0.34416630  0.10058383     0.02600
N2630       N  0.91402641  0.40337252  0.12612735    -0.81100
H2631       H  0.92557932  0.38401863  0.16334413     0.18000
C2632       C  0.86357219  0.34372732  0.09635124    -0.25900
C2633       C  0.85106605  0.35584539  0.07834747     0.36100
C2634       C  0.87543241  0.36926841  0.06434437    -0.20000
C2635       C  0.91214815  0.36627115  0.06779130    -0.25200
C2636       C  0.92477428  0.35328878  0.08584685     0.27500
H2637       H  0.84460857  0.33562357  0.10750209     0.13200
N2638       N  0.81343167  0.35524924  0.07485724    -0.82500
H2639       H  0.93079427  0.37578311  0.05683159     0.18100
N2640       N  0.96234637  0.34927468  0.08924998    -0.81100
H2641       H  0.80416382  0.38123901  0.07306512     0.33700
H2642       H  0.80882077  0.34121909  0.06190981     0.38200
H2643       H  0.97678914  0.35651112  0.07675174     0.33700
H2644       H  0.96991660  0.36683924  0.10030304     0.30400
H2645       H  0.91701328  0.42182227  0.13744079     0.33700
H2646       H  0.93536711  0.40754025  0.11657297     0.30400
H2647       H  0.93935195  0.25637297  0.16209208     0.38200
H2648       H  0.90931363  0.24370620  0.14536502     0.33700
C2649       C  0.93391581  0.30873150  0.36874641    -0.20000
C2650       C  0.92670708  0.27559775  0.37784525     0.36200
C2651       C  0.93657246  0.26995062  0.39737161    -0.26000
C2652       C  0.95276433  0.29686755  0.40842563     0.02600
C2653       C  0.95738240  0.33089483  0.39991477     0.27400
C2654       C  0.94838551  0.33631054  0.38011923    -0.25100
N2655       N  0.91108378  0.24680522  0.36715076    -0.82500
H2656       H  0.93316187  0.24358992  0.40357585     0.13200
C2657       C  0.96831933  0.28748822  0.42785102     0.02600
N2658       N  0.97180948  0.35959167  0.41129890    -0.81100
H2659       H  0.95339353  0.36202797  0.37344020     0.18000
C2660       C  0.50493360  0.28645522  0.43026164    -0.25900
C2661       C  0.52212450  0.27300100  0.44682299     0.36100
C2662       C  0.50361085  0.24992845  0.45962031    -0.20000
C2663       C  0.96696869  0.25320686  0.45822234    -0.25200
C2664       C  0.94910024  0.26724665  0.44183726     0.27500
H2665       H  0.51982173  0.30288309  0.42005316     0.13200
N2666       N  0.55860987  0.28240413  0.45010456    -0.82500
H2667       H  0.95280294  0.23632418  0.46851039     0.18100
N2668       N  0.91176396  0.26043152  0.43911541    -0.81100
H2669       H  0.57394573  0.25920158  0.45006711     0.33700
H2670       H  0.56052183  0.29406663  0.46394666     0.38200
H2671       H  0.90169871  0.24497905  0.45062472     0.33700
H2672       H  0.89856028  0.28489740  0.43968349     0.30400
H2673       H  0.97372574  0.38279496  0.40285914     0.33700
H2674       H  0.95375054  0.36496389  0.42257488     0.30400
H2675       H  0.92870373  0.22527514  0.36745348     0.38200
H2676       H  0.88767669  0.23915596  0.37435134     0.33700
C2677       C  0.93036970  0.81191689  0.34695213     0.80100
N2678       N  0.95368245  0.83423882  0.33778804    -0.78300
C2679       C  0.95497793  0.83573813  0.31789951     0.82500
N2680       N  0.93327183  0.81454620  0.30715974    -0.78200
C2681       C  0.90902809  0.79335083  0.31619591     0.82600
N2682       N  0.90775074  0.79207975  0.33599447    -0.79900
C2683       C  0.92530349  0.82270055  0.18253772     0.80100
N2684       N  0.94897558  0.84215827  0.19305915    -0.78300
C2685       C  0.95255333  0.83656191  0.21259672     0.82500
N2686       N  0.93202370  0.81171498  0.22165723    -0.78200
C2687       C  0.90741446  0.79308579  0.21134315     0.82600
N2688       N  0.90427079  0.79842016  0.19175790    -0.79900
C2689       C  0.70201288  0.83252402  0.34559543     0.80100
N2690       N  0.67625331  0.85042790  0.33577150    -0.78300
C2691       C  0.66917263  0.84280228  0.31677997     0.82500
N2692       N  0.68763093  0.81656854  0.30758298    -0.78200
C2693       C  0.71385796  0.79881926  0.31725159     0.82600
N2694       N  0.72100397  0.80692472  0.33622268    -0.79900
C2695       C  0.92829838  0.55671784  0.18101376     0.80100
N2696       N  0.90602470  0.57888431  0.19093632    -0.78300
C2697       C  0.90636298  0.57976417  0.21084911     0.82500
N2698       N  0.92957297  0.55890535  0.22090784    -0.78200
C2699       C  0.95108418  0.53594655  0.21117149     0.82600
N2700       N  0.95044138  0.53508356  0.19133142    -0.79900
C2701       C  0.98200623  0.85736325  0.30796422     0.42300
N2702       N  0.52014532  0.87420682  0.28728300     0.01200
C2703       C  0.62610752  0.52334739  0.28825595    -0.06700
H2704       H  0.48909404  0.54422973  0.27969520     0.06700
C2705       C  0.49425810  0.98013857  0.21351039    -0.07000
Co2706     Co  0.55842362  0.93974270  0.29979390     0.74200
N2707       N  0.51866702  0.00165939  0.28376310    -0.26200
Co2708     Co  0.55737233  0.00145586  0.26198437     0.74100
C2709       C  0.47770522  0.50832235  0.22348232     0.42400
N2710       N  0.52024349  0.89367919  0.22916025     0.00800
N2711       N  0.51851618  0.99864715  0.24031728     0.00900
N2712       N  0.62163683  0.98647797  0.31112251    -0.47100
H2713       H  0.48921779  0.90846588  0.32678810     0.06700
N2714       N  0.51913804  0.97864144  0.29840616     0.01200
N2715       N  0.59635054  0.99959549  0.24036987     0.00900
C2716       C  0.64028490  0.01213104  0.22174777     0.42500
N2717       N  0.52057944  0.87056718  0.24377092    -0.25700
C2718       C  0.62374794  0.89506587  0.31328195    -0.06600
N2719       N  0.49505338  0.85013622  0.29052894    -0.46800
N2720       N  0.62214946  0.02312661  0.23764797    -0.47000
C2721       C  0.64116414  0.86263883  0.30657820     0.42300
N2722       N  0.59653049  0.97976723  0.29808638     0.01200
N2723       N  0.59801800  0.87183805  0.24374849    -0.25700
N2724       N  0.52041235  0.89955620  0.30062304    -0.26200
N2725       N  0.59762942  0.89476555  0.22905638     0.00800
H2726       H  0.63119929  0.82661154  0.25041638     0.06700
H2727       H  0.63007193  0.96346770  0.20212309     0.06700
N2728       N  0.59624409  0.00302052  0.28357033    -0.26200
N2729       N  0.51940621  0.97336237  0.22693950    -0.25900
N2730       N  0.59819995  0.87495286  0.28719781     0.01200
C2731       C  0.47910430  0.51055825  0.30732482     0.42600
C2732       C  0.49486122  0.84647433  0.24091096    -0.07100
N2733       N  0.59659530  0.97394545  0.22720069    -0.25900
H2734       H  0.48957591  0.96494946  0.20033179     0.06700
N2735       N  0.49395963  0.98484148  0.31159606    -0.47100
H2736       H  0.99073554  0.82203473  0.25108535     0.06700
C2737       C  0.64124559  0.86018578  0.22273466     0.42400
C2738       C  0.49474971  0.89291272  0.31383012    -0.06600
Co2739     Co  0.55921776  0.87218410  0.26552952     0.73800
N2740       N  0.49567732  0.88623554  0.21587898    -0.46800
C2741       C  0.63944510  0.01521779  0.30442131     0.42700
N2742       N  0.62389091  0.85147093  0.29042102    -0.46800
Co2743     Co  0.55841494  0.93387845  0.22763838     0.73900
C2744       C  0.62345184  0.97972146  0.21465951    -0.07100
C2745       C  0.49533362  0.52168558  0.28895730    -0.06700
N2746       N  0.59758194  0.90064062  0.30033658    -0.26200
N2747       N  0.49506612  0.51912733  0.23969481    -0.47000
H2748       H  0.63153565  0.54625287  0.27909213     0.06700
C2749       C  0.62494214  0.84909494  0.24111246    -0.07100
Cl2750     Cl  0.55830373  0.93679539  0.26372928    -0.50100
C2751       C  0.97972275  0.85598185  0.22365950     0.42400
H2752       H  0.62922251  0.91116440  0.32603417     0.06600
N2753       N  0.62282910  0.88839046  0.21587734    -0.46800
C2754       C  0.69565868  0.82041411  0.18310673     0.80100
N2755       N  0.67189756  0.84189095  0.19249087    -0.78300
C2756       C  0.66931365  0.84090031  0.21236542     0.82500
N2757       N  0.68983280  0.81800189  0.22271091    -0.78200
C2758       C  0.71395299  0.79721611  0.21352271     0.82600
N2759       N  0.71664627  0.79825950  0.19377593    -0.79900
C2760       C  0.92291384  0.55129022  0.34673914     0.80100
N2761       N  0.90271208  0.57535462  0.33684169    -0.78300
C2762       C  0.90645229  0.57902851  0.31718543     0.82500
N2763       N  0.93084732  0.55917486  0.30752288    -0.78200
C2764       C  0.45072076  0.52971840  0.31755508     0.82600
N2765       N  0.94664435  0.53061465  0.33683810    -0.79900
C2766       C  0.68589191  0.55684415  0.34868406     0.80100
N2767       N  0.70851204  0.57955710  0.33926473    -0.78300
C2768       C  0.71051651  0.57983357  0.31937849     0.82500
N2769       N  0.68940657  0.55772670  0.30885482    -0.78200
C2770       C  0.66765589  0.53418482  0.31806834     0.82600
N2771       N  0.66576353  0.53401900  0.33791348    -0.79900
C2772       C  0.70228168  0.54503895  0.18458926     0.80100
N2773       N  0.71973273  0.57072046  0.19472082    -0.78300
C2774       C  0.71135876  0.57719392  0.21370514     0.82500
N2775       N  0.68544647  0.55792723  0.22262105    -0.78200
C2776       C  0.66838846  0.53179038  0.21271118     0.82600
N2777       N  0.67661379  0.52553171  0.19366896    -0.79900
C2778       C  0.73375802  0.77022008  0.30753406     0.42300
N2779       N  0.74607068  0.72662033  0.28856035     0.01200
C2780       C  0.89662001  0.62149292  0.28774137    -0.06700
H2781       H  0.92060352  0.75690251  0.27730130     0.06700
C2782       C  0.85244460  0.74993354  0.21447377    -0.07000
Co2783     Co  0.81137104  0.68757294  0.30112450     0.74200
N2784       N  0.87419789  0.72534550  0.28424009    -0.26200
Co2785     Co  0.87266515  0.68604706  0.26292239     0.74100
C2786       C  0.88545666  0.76630971  0.22126643     0.42400
N2787       N  0.76627217  0.72545538  0.23060794     0.00800
N2788       N  0.87088773  0.72456283  0.24105066     0.00900
N2789       N  0.85780702  0.62398095  0.31318303    -0.47100
H2790       H  0.78261429  0.75912246  0.32695146     0.06700
N2791       N  0.85131823  0.72591343  0.29893786     0.01200
N2792       N  0.86988350  0.64673364  0.24144746     0.00900
C2793       C  0.88395795  0.60524108  0.22144292     0.42500
N2794       N  0.74315566  0.72592337  0.24521035    -0.25700
C2795       C  0.76460493  0.62398767  0.31587131    -0.06600
N2796       N  0.72254508  0.75234137  0.29158299    -0.46800
N2797       N  0.89413108  0.62195458  0.23796873    -0.47000
C2798       C  0.73208590  0.60667402  0.30914970     0.42300
N2799       N  0.85067550  0.64850809  0.29975355     0.01200
N2800       N  0.74198362  0.64835594  0.24539245    -0.25700
N2801       N  0.77193614  0.72653736  0.30161758    -0.26200
N2802       N  0.76516301  0.64818088  0.23080809     0.00800
H2803       H  0.69567748  0.61622183  0.25183581     0.06700
H2804       H  0.83592883  0.61738334  0.20157662     0.05500
N2805       N  0.87333901  0.64788686  0.28494274    -0.26200
N2806       N  0.84542680  0.72447531  0.22777639    -0.25900
N2807       N  0.74571539  0.64851585  0.28908848     0.01200
C2808       C  0.88731397  0.76870428  0.30480803     0.42600
C2809       C  0.72105289  0.75346877  0.24270000    -0.07100
N2810       N  0.84450266  0.64740053  0.22811354    -0.25900
H2811       H  0.83695006  0.75555164  0.20149290     0.06700
N2812       N  0.85868244  0.75106261  0.31186167    -0.47100
H2813       H  0.69872311  0.76017622  0.25201282     0.06700
C2814       C  0.72958552  0.60546956  0.22436540     0.42400
C2815       C  0.76634154  0.75309583  0.31433528    -0.06600
Co2816     Co  0.74341232  0.68726517  0.26707125     0.73800
N2817       N  0.76071995  0.75114114  0.21767480    -0.46800
C2818       C  0.88628349  0.60586997  0.30638784     0.42700
N2819       N  0.72174889  0.62339405  0.29258904    -0.46800
Co2820     Co  0.80515058  0.68636122  0.22891571     0.73900
C2821       C  0.85123846  0.62221997  0.21470625    -0.07100
C2822       C  0.89781126  0.75169347  0.28658970    -0.06700
N2823       N  0.77117152  0.64927842  0.30239910    -0.26200
N2824       N  0.89538849  0.74917572  0.23771466    -0.47000
H2825       H  0.91912141  0.61539494  0.27842396     0.06700
C2826       C  0.71845186  0.62202154  0.24263833    -0.07100
Cl2827     Cl  0.80809346  0.68668083  0.26502141    -0.50100
C2828       C  0.73298888  0.77009118  0.22457509     0.42400
H2829       H  0.78026307  0.61886445  0.32885390     0.06600
N2830       N  0.75848875  0.62308820  0.21775402    -0.46800
N2831       N  0.80671025  0.95221631  0.54667849    -0.36800
N2832       N  0.84153240  0.99505497  0.51698385    -0.57300
N2833       N  0.80289182  0.95506997  0.48698886    -0.36800
N2834       N  0.77174307  0.90889692  0.51659945    -0.57300
C2835       C  0.83091563  0.97012422  0.55756045     0.26800
C2836       C  0.79578655  0.92385334  0.55737548     0.26800
C2837       C  0.82638757  0.97323809  0.47571187     0.26800
C2838       C  0.78758090  0.93004255  0.47553022     0.26800
C2839       C  0.85104662  0.01434433  0.53277266     0.35400
C2840       C  0.85131360  0.01413786  0.50110614     0.35400
C2841       C  0.75650587  0.89443198  0.53267709     0.35400
C2842       C  0.75296712  0.89716559  0.50103545     0.35400
C2843       C  0.83531228  0.95302975  0.57539646    -0.22100
C2844       C  0.81303998  0.92406812  0.57535283    -0.22100
C2845       C  0.82548963  0.95989198  0.45676624    -0.22100
C2846       C  0.80099436  0.93285378  0.45663905    -0.22100
C2847       C  0.87480008  0.54725640  0.52864020    -0.23100
C2848       C  0.87798720  0.54518881  0.50857879    -0.23100
C2849       C  0.72832043  0.87271180  0.52727828    -0.23100
C2850       C  0.72606410  0.87448517  0.50718534    -0.23100
C2851       C  0.84786616  0.00248804  0.55232414    -0.18500
C2852       C  0.76866378  0.89945241  0.55205703    -0.18500
C2853       C  0.76089763  0.90547128  0.48132789    -0.18500
C2854       C  0.84742634  0.00268897  0.48160764    -0.18500
H2855       H  0.85243265  0.96089328  0.58736267     0.14400
H2856       H  0.80980107  0.90562639  0.58740517     0.14400
H2857       H  0.84054285  0.96892135  0.44416805     0.14400
H2858       H  0.79389390  0.91713171  0.44397797     0.14400
H2859       H  0.88317533  0.56932865  0.53768573     0.12700
H2860       H  0.88937561  0.56527137  0.49904759     0.12700
H2861       H  0.71130559  0.85708002  0.53679873     0.12700
H2862       H  0.70697915  0.86056955  0.49814036     0.12700
H2863       H  0.79637597  0.96024146  0.53335706     0.26000
H2864       H  0.79643372  0.96052451  0.50135222     0.26000
N2865       N  0.55881767  0.69503288  0.04928355    -0.36800
N2866       N  0.60575193  0.72744715  0.01970564    -0.57300
N2867       N  0.56886765  0.68672277  0.99045026    -0.36800
N2868       N  0.52570972  0.65033149  0.01965256    -0.57300
C2869       C  0.58383335  0.71089912  0.06053764     0.26800
C2870       C  0.54264244  0.66991341  0.06050317     0.26800
C2871       C  0.59691955  0.69915672  0.98004502     0.26800
C2872       C  0.55439224  0.65995540  0.98000758     0.26800
C2873       C  0.61275988  0.74882611  0.03504796     0.35400
C2874       C  0.61784239  0.74448613  0.00354432     0.35400
C2875       C  0.50409614  0.64325320  0.03496982     0.35400
C2876       C  0.50752151  0.64119899  0.00339833     0.35400
C2877       C  0.58327829  0.69591067  0.07914388    -0.22100
C2878       C  0.55732740  0.67009081  0.07911568    -0.22100
C2879       C  0.60064209  0.67971310  0.96292936    -0.22100
C2880       C  0.57372469  0.65489872  0.96290469    -0.22100
C2881       C  0.63000740  0.77941387  0.02867175    -0.23100
C2882       C  0.63314733  0.77668309  0.00862390    -0.23100
C2883       C  0.97163746  0.62725605  0.02804826    -0.23100
C2884       C  0.97131739  0.62771258  0.00791368    -0.23100
C2885       C  0.60592973  0.73973687  0.05479077    -0.18500
C2886       C  0.51368216  0.64819659  0.05469920    -0.18500
C2887       C  0.52149659  0.64353003  0.98428639    -0.18500
C2888       C  0.61611337  0.73039245  0.98444629    -0.18500
H2889       H  0.59981216  0.70288022  0.09152015     0.14400
H2890       H  0.54998167  0.65348070  0.09145746     0.14400
H2891       H  0.61991703  0.68389095  0.95133800     0.14400
H2892       H  0.56812809  0.63618087  0.95128459     0.14400
H2893       H  0.63944618  0.80127530  0.03755311     0.12700
H2894       H  0.64546827  0.79596088  0.99894008     0.12700
H2895       H  0.95144448  0.61552737  0.03738011     0.12700
H2896       H  0.95096889  0.61633200  0.99863362     0.12700
H2897       H  0.55192802  0.70232353  0.03526223     0.26000
H2898       H  0.55786242  0.69820219  0.00271975     0.26000
N2899       N  0.55288061  0.69630718  0.48368910    -0.36800
N2900       N  0.59155391  0.65465171  0.51275910    -0.57300
N2901       N  0.56112880  0.70052496  0.54292639    -0.36800
N2902       N  0.51849639  0.73846832  0.51404188    -0.57300
C2903       C  0.56532801  0.66915737  0.47264712     0.26800
C2904       C  0.52656800  0.71233659  0.47341272     0.26800
C2905       C  0.57577773  0.67438173  0.55392382     0.26800
C2906       C  0.53800087  0.71831917  0.55453394     0.26800
C2907       C  0.60800424  0.64263194  0.49644615     0.35400
C2908       C  0.61171587  0.64430123  0.52812806     0.35400
C2909       C  0.50717362  0.75676410  0.49820971     0.35400
C2910       C  0.51183976  0.75920659  0.52971900     0.35400
C2911       C  0.54661631  0.66786454  0.45516704    -0.22100
C2912       C  0.52223895  0.69513019  0.45562997    -0.22100
C2913       C  0.56187306  0.67569974  0.57276141    -0.22100
C2914       C  0.53804243  0.70336419  0.57313725    -0.22100
C2915       C  0.63852582  0.62400726  0.50150856    -0.23100
C2916       C  0.64079376  0.62496231  0.52162942    -0.23100
C2917       C  0.98935926  0.77405640  0.50180509    -0.23100
C2918       C  0.99178516  0.77711486  0.52185598    -0.23100
C2919       C  0.59505939  0.64741486  0.47715805    -0.18500
C2920       C  0.50846252  0.74385826  0.47886875    -0.18500
C2921       C  0.51865410  0.74919787  0.54924761    -0.18500
C2922       C  0.60330503  0.65107025  0.54793779    -0.18500
H2923       H  0.55061479  0.64958201  0.44314000     0.14400
H2924       H  0.50387529  0.70193043  0.44401009     0.14400
H2925       H  0.56853656  0.65877065  0.58507325     0.14400
H2926       H  0.52280094  0.71177766  0.58577550     0.14400
H2927       H  0.65718945  0.61107062  0.49175822     0.12700
H2928       H  0.66144754  0.61288430  0.53045827     0.12700
H2929       H  0.97780802  0.79347521  0.49195651     0.12700
H2930       H  0.98251909  0.79933248  0.53053111     0.12700
H2931       H  0.56369986  0.70515618  0.49674432     0.26000
H2932       H  0.56840906  0.70744723  0.52878223     0.26000
N2933       N  0.81839635  0.94288148  0.98321158    -0.36800
N2934       N  0.85784491  0.90231401  0.01284717    -0.57300
N2935       N  0.82151946  0.94301763  0.04207322    -0.36800
N2936       N  0.78527193  0.98665300  0.01286636    -0.57300
C2937       C  0.84377734  0.92665881  0.97233655     0.26800
C2938       C  0.80495258  0.96988199  0.97229255     0.26800
C2939       C  0.84711032  0.92677235  0.05269793     0.26800
C2940       C  0.80989913  0.97086629  0.05269921     0.26800
C2941       C  0.86516559  0.88257606  0.99694536     0.35400
C2942       C  0.86549147  0.88187696  0.02855570     0.35400
C2943       C  0.76560039  0.99694946  0.99734154     0.35400
C2944       C  0.76712631  0.99655186  0.02902355     0.35400
C2945       C  0.84650692  0.94359845  0.95430223    -0.22100
C2946       C  0.82194783  0.97076365  0.95425679    -0.22100
C2947       C  0.85212772  0.94471127  0.07018985    -0.22100
C2948       C  0.82851225  0.97258744  0.07021243    -0.22100
C2949       C  0.87802245  0.84944848  0.00252658    -0.23100
C2950       C  0.87819898  0.84901192  0.02269431    -0.23100
C2951       C  0.73558116  0.51340817  0.00452088    -0.23100
C2952       C  0.73639842  0.51302079  0.02467470    -0.23100
C2953       C  0.86246480  0.89525226  0.97759073    -0.18500
C2954       C  0.77612512  0.99218185  0.97767337    -0.18500
C2955       C  0.77946445  0.99118377  0.04826194    -0.18500
C2956       C  0.86283479  0.89388988  0.04796026    -0.18500
H2957       H  0.86400053  0.93672075  0.94227497     0.14400
H2958       H  0.81692046  0.98889525  0.94222928     0.14400
H2959       H  0.86998675  0.93764024  0.08200274     0.14400
H2960       H  0.82451619  0.99117430  0.08209359     0.14400
H2961       H  0.88668186  0.82806541  0.99305919     0.12700
H2962       H  0.88698015  0.82729816  0.03194549     0.12700
H2963       H  0.71502714  0.52523597  0.99552255     0.12700
H2964       H  0.71667697  0.52450822  0.03435534     0.12700
H2965       H  0.80900469  0.93432742  0.99672731     0.26000
H2966       H  0.80989742  0.93347284  0.02934304     0.26000
C2967       C  0.94583597  0.81915783  0.84711448     0.80100
N2968       N  0.96686210  0.84175474  0.83665719    -0.78300
C2969       C  0.96564826  0.84197252  0.81681072     0.82500
N2970       N  0.94265001  0.82014030  0.80736706    -0.78200
C2971       C  0.92221799  0.79689842  0.81767074     0.82600
N2972       N  0.92369920  0.79657523  0.83751815    -0.79900
C2973       C  0.95165304  0.58555323  0.84708003     0.80100
N2974       N  0.97281112  0.56231635  0.83714209    -0.78300
C2975       C  0.96919183  0.55865851  0.81746951     0.82500
N2976       N  0.94461625  0.57828832  0.80780163    -0.78200
C2977       C  0.92419803  0.60215697  0.81746785     0.82600
N2978       N  0.92758052  0.60568969  0.83712838    -0.79900
C2979       C  0.69240888  0.57411108  0.84795309     0.80100
N2980       N  0.71285847  0.59671476  0.83714627    -0.78300
C2981       C  0.70995827  0.59775830  0.81736550     0.82500
N2982       N  0.68667764  0.57585154  0.80825052    -0.78200
C2983       C  0.66505597  0.55422539  0.81886475     0.82600
N2984       N  0.66810481  0.55316631  0.83868728    -0.79900
C2985       C  0.67949304  0.80925381  0.84910353     0.80100
N2986       N  0.66083195  0.83568670  0.84006047    -0.78300
C2987       C  0.66601133  0.84259775  0.82065994     0.82500
N2988       N  0.69012434  0.82318499  0.81035038    -0.78200
C2989       C  0.70828554  0.79641404  0.81922491     0.82600
N2990       N  0.70290839  0.78967985  0.83849384    -0.79900
C2991       C  0.67792717  0.58626109  0.68280497     0.80100
N2992       N  0.70352941  0.60571499  0.69189916    -0.78300
C2993       C  0.70991611  0.60111991  0.71130003     0.82500
N2994       N  0.69079565  0.57687093  0.72163157    -0.78200
C2995       C  0.66460939  0.55799828  0.71279070     0.82600
N2996       N  0.65812911  0.56278298  0.69340855    -0.79900
C2997       C  0.94968392  0.58476799  0.68250552     0.80100
N2998       N  0.97211364  0.56290718  0.69250600    -0.78300
C2999       C  0.97207058  0.56212205  0.71237579     0.82500
N3000       N  0.94912309  0.58322326  0.72242973    -0.78200
C3001       C  0.92769811  0.60628170  0.71263370     0.82600
N3002       N  0.92789699  0.60680465  0.69275501    -0.79900
C3003       C  0.89588967  0.77511353  0.80753238     0.42300
N3004       N  0.85322533  0.76177561  0.78823689     0.01200
C3005       C  0.75131963  0.60899804  0.78737022    -0.06700
H3006       H  0.88781917  0.58861832  0.77892857     0.06700
C3007       C  0.88326275  0.65925028  0.71606001    -0.07000
Co3008     Co  0.81490442  0.69604000  0.80096330     0.74200
N3009       N  0.85493756  0.63421574  0.78521269    -0.26200
Co3010     Co  0.81699937  0.63473794  0.76316329     0.74100
C3011       C  0.90140439  0.62753890  0.72324100     0.42400
N3012       N  0.85398348  0.74321194  0.73023988     0.00800
N3013       N  0.85692183  0.63855590  0.74190945     0.00900
N3014       N  0.75215587  0.64821371  0.81250613    -0.47100
H3015       H  0.88452120  0.72695896  0.82753030     0.06700
N3016       N  0.85415075  0.65703152  0.79986044     0.01200
N3017       N  0.77888834  0.63621074  0.74106918     0.00900
C3018       C  0.73767310  0.62180317  0.72105520     0.42500
N3019       N  0.85333305  0.76622311  0.74479224    -0.25700
C3020       C  0.75052590  0.74175702  0.81479987    -0.06600
N3021       N  0.87851276  0.78566117  0.79127087    -0.46800
N3022       N  0.75435603  0.61169645  0.73762705    -0.47000
C3023       C  0.73385428  0.77475665  0.80826519     0.42300
N3024       N  0.77684018  0.65581591  0.79924958     0.01200
N3025       N  0.77564933  0.76348476  0.74481729    -0.25700
N3026       N  0.85294528  0.73630537  0.80160716    -0.26200
N3027       N  0.77658401  0.74078946  0.73009282     0.00800
H3028       H  0.74097271  0.80731616  0.75183294     0.06700
H3029       H  0.74859213  0.67050952  0.70140826     0.06700
N3030       N  0.77737773  0.63288244  0.78462186    -0.26200
N3031       N  0.85629862  0.66415885  0.72863253    -0.25900
N3032       N  0.77538034  0.76095915  0.78820122     0.01200
C3033       C  0.89701925  0.62183579  0.80666715     0.42600
C3034       C  0.87905743  0.79044210  0.74190001    -0.07100
N3035       N  0.77916843  0.66173052  0.72775409    -0.25900
H3036       H  0.88894029  0.67541520  0.70329629     0.06700
N3037       N  0.87868254  0.65024896  0.81330460    -0.47100
H3038       H  0.88422683  0.81334122  0.75102908     0.06700
C3039       C  0.73174434  0.77390842  0.72415542     0.42400
C3040       C  0.87882614  0.74269515  0.81462323    -0.06600
Co3041     Co  0.81439590  0.76382947  0.76652215     0.73800
N3042       N  0.87871781  0.75074747  0.71699463    -0.46800
C3043       C  0.73468861  0.61935795  0.80578567     0.42700
N3044       N  0.75071192  0.78530814  0.79179640    -0.46800
Co3045     Co  0.81650537  0.70253879  0.72873630     0.73900
C3046       C  0.75407168  0.65480914  0.71435614    -0.07100
C3047       C  0.88147807  0.61113849  0.78812845    -0.06700
N3048       N  0.77586950  0.73530310  0.80143886    -0.26200
N3049       N  0.88345398  0.61588279  0.73915138    -0.47000
H3050       H  0.74620712  0.58603078  0.77828268     0.06700
C3051       C  0.74788896  0.78523560  0.74243694    -0.07100
Cl3052     Cl  0.81566202  0.69928111  0.76485783    -0.50100
C3053       C  0.89573255  0.78003110  0.72350400     0.42400
H3054       H  0.74559780  0.72623422  0.82789589     0.06600
N3055       N  0.75111064  0.74659405  0.71705119    -0.46800
C3056       C  0.95234787  0.81258354  0.68279182     0.80100
N3057       N  0.92790218  0.79351354  0.69314546    -0.78300
C3058       C  0.92306704  0.79963346  0.71255955     0.82500
N3059       N  0.94293950  0.82474552  0.72169426    -0.78200
C3060       C  0.96821048  0.84306576  0.71162165     0.82600
N3061       N  0.97277786  0.83704824  0.69218248    -0.79900
C3062       C  0.68491263  0.81951717  0.68381683     0.80100
N3063       N  0.70589586  0.79578563  0.69349200    -0.78300
C3064       C  0.70521468  0.79434060  0.71337092     0.82500
N3065       N  0.68408663  0.81693239  0.72351337    -0.78200
C3066       C  0.66256053  0.84000373  0.71402779     0.82600
N3067       N  0.66332462  0.84163843  0.69419414    -0.79900
C3068       C  0.64527811  0.87044848  0.81068012     0.42300
N3069       N  0.63036362  0.91083369  0.79001445     0.01200
C3070       C  0.97861200  0.51634490  0.78803719    -0.06700
H3071       H  0.95326952  0.87970145  0.77815045     0.06700
C3072       C  0.52342823  0.88690559  0.71613072    -0.07000
Co3073     Co  0.56477037  0.94970452  0.80234135     0.74200
N3074       N  0.50244572  0.91105538  0.78576357    -0.26200
Co3075     Co  0.00154385  0.95041185  0.76323049     0.74100
C3076       C  0.98962673  0.87000728  0.72163454     0.42400
N3077       N  0.60929107  0.91071376  0.73169522     0.00800
N3078       N  0.50474785  0.91230440  0.74259104     0.00900
N3079       N  0.51664385  0.50944663  0.81383484    -0.47100
H3080       H  0.59670069  0.88212069  0.83027325     0.06700
N3081       N  0.52538577  0.91077079  0.80040811     0.01200
N3082       N  0.00438865  0.98960209  0.74145098     0.00900
C3083       C  0.99363801  0.53552973  0.72274434     0.42500
N3084       N  0.63239005  0.91008093  0.74626996    -0.25700
C3085       C  0.60990273  0.51128950  0.81563291    -0.06600
N3086       N  0.65509465  0.88662666  0.79383131    -0.46800
N3087       N  0.98249753  0.51775000  0.73881906    -0.47000
C3088       C  0.64219691  0.52888376  0.80860585     0.42300
N3089       N  0.52504388  0.98832453  0.80094234     0.01200
N3090       N  0.63393790  0.98768652  0.74574469    -0.25700
N3091       N  0.60488542  0.91144154  0.80335316    -0.26200
N3092       N  0.61063175  0.98776592  0.73130138     0.00800
H3093       H  0.67839634  0.52045503  0.75142846     0.06700
H3094       H  0.53945627  0.52089300  0.70302993     0.06700
N3095       N  0.00126554  0.98890934  0.78510746    -0.26200
N3096       N  0.53027543  0.91232141  0.72931677    -0.25900
N3097       N  0.62981831  0.98871472  0.78941164     0.01200
C3098       C  0.49140127  0.86611808  0.80587353     0.42600
C3099       C  0.65465890  0.88270035  0.74358143    -0.07100
N3100       N  0.53152785  0.98940856  0.72935332    -0.25900
H3101       H  0.53901871  0.88129563  0.70316650     0.06700
N3102       N  0.51924194  0.88466836  0.81305469    -0.47100
H3103       H  0.67721386  0.87610898  0.75272638     0.06700
C3104       C  0.64465337  0.53140590  0.72398608     0.42400
C3105       C  0.61207601  0.88688334  0.81711188    -0.06600
Co3106     Co  0.63236691  0.94932134  0.76785907     0.73800
N3107       N  0.61515411  0.88550858  0.71856792    -0.46800
C3108       C  0.98926150  0.53177098  0.80662279     0.42700
N3109       N  0.65210916  0.51261926  0.79191144    -0.46800
Co3110     Co  0.57056024  0.95005008  0.73005499     0.73900
C3111       C  0.52374198  0.51499283  0.71593079    -0.07100
C3112       C  0.97599234  0.88500545  0.78740578    -0.06700
N3113       N  0.60450915  0.98831865  0.80288621    -0.26200
N3114       N  0.97925413  0.88708571  0.73801252    -0.47000
H3115       H  0.95608517  0.52273622  0.77882765     0.06700
C3116       C  0.65552537  0.51488991  0.74233065    -0.07100
Cl3117     Cl  0.56775226  0.94997619  0.76615928    -0.50100
C3118       C  0.64301622  0.86655927  0.72529480     0.42400
H3119       H  0.59478446  0.51581749  0.82889277     0.06600
N3120       N  0.61585902  0.51369502  0.71738175    -0.46800
C3121       C  0.69956346  0.56887297  0.86920967    -0.20000
C3122       C  0.73327824  0.57642414  0.87750521     0.36200
C3123       C  0.74032466  0.56682320  0.89696114    -0.26000
C3124       C  0.71456244  0.54969165  0.90849761     0.02600
C3125       C  0.68032977  0.54397927  0.90068861     0.27400
C3126       C  0.67321842  0.55328179  0.88114452    -0.25100
N3127       N  0.76115951  0.59229600  0.86608458    -0.82500
H3128       H  0.76674628  0.57140951  0.90281135     0.13200
C3129       C  0.72517620  0.53573932  0.92801952     0.02600
N3130       N  0.65273675  0.52870396  0.91254714    -0.81100
H3131       H  0.64704410  0.54776709  0.87522335     0.18000
C3132       C  0.74238726  0.55836949  0.94138356    -0.25900
C3133       C  0.75819603  0.54481959  0.95841638     0.36100
C3134       C  0.75639243  0.01070726  0.96168164    -0.20000
C3135       C  0.73576730  0.99020432  0.94883877    -0.25200
C3136       C  0.72135096  0.00514056  0.93174150     0.27500
H3137       H  0.74513874  0.58645473  0.93803695     0.13200
N3138       N  0.77864328  0.56842057  0.97041028    -0.82500
H3139       H  0.73224027  0.96201279  0.95165561     0.18100
N3140       N  0.70266557  0.98289271  0.91820538    -0.81100
H3141       H  0.76773831  0.56860392  0.98448267     0.33700
H3142       H  0.80468201  0.55868916  0.97125793     0.38200
H3143       H  0.71974822  0.96236227  0.91391055     0.33700
H3144       H  0.68102210  0.97148800  0.92555795     0.30400
H3145       H  0.63156961  0.54673778  0.91307188     0.33700
H3146       H  0.63892335  0.02651432  0.90888914     0.30400
H3147       H  0.78289348  0.57490721  0.86596943     0.38200
H3148       H  0.76906377  0.61579026  0.87301133     0.33700
C3149       C  0.94174765  0.82414021  0.86843664    -0.20000
C3150       C  0.93415268  0.79544615  0.88121347     0.36200
C3151       C  0.92464923  0.80253322  0.90076988    -0.26000
C3152       C  0.92201321  0.83767871  0.90747172     0.02600
C3153       C  0.93098177  0.86603469  0.89494943     0.27400
C3154       C  0.94120902  0.85907657  0.87565968    -0.25100
N3155       N  0.93546327  0.75944501  0.87419222    -0.82500
H3156       H  0.91786155  0.78083345  0.91058030     0.13200
C3157       C  0.90715239  0.84531425  0.92702007     0.02600
N3158       N  0.92802052  0.90208049  0.90156707    -0.81100
H3159       H  0.94659072  0.88135811  0.86597694     0.18000
C3160       C  0.92988536  0.85984403  0.94120015    -0.25900
C3161       C  0.91619843  0.87478637  0.95834872     0.36100
C3162       C  0.87907267  0.87447777  0.96160988    -0.20000
C3163       C  0.85661103  0.85784104  0.94809790    -0.25200
C3164       C  0.86999259  0.84379171  0.93065123     0.27500
H3165       H  0.95825489  0.86148325  0.93834892     0.13200
N3166       N  0.94025674  0.89191086  0.97158202    -0.82500
H3167       H  0.82808263  0.85777032  0.95059672     0.18100
N3168       N  0.84484063  0.83003929  0.91670878    -0.81100
H3169       H  0.93837790  0.87943475  0.98523392     0.33700
H3170       H  0.93250376  0.91847310  0.97312592     0.38200
H3171       H  0.82845978  0.85110852  0.91235036     0.33700
H3172       H  0.85715525  0.82066223  0.90405167     0.30400
H3173       H  0.95286966  0.91428676  0.89989152     0.33700
H3174       H  0.90987614  0.91531485  0.89251796     0.30400
H3175       H  0.96181455  0.75409728  0.87019849     0.38200
H3176       H  0.92897117  0.74156468  0.88541037     0.33700
C3177       C  0.67150633  0.59059747  0.66155215    -0.20000
C3178       C  0.69968958  0.59660577  0.64825062     0.36200
C3179       C  0.69232795  0.60188898  0.62831075    -0.26000
C3180       C  0.65716518  0.60187043  0.62138253     0.02600
C3181       C  0.62892512  0.59523793  0.63463159     0.27400
C3182       C  0.63648266  0.58903047  0.65449751    -0.25100
N3183       N  0.73586731  0.59686649  0.65486700    -0.82500
H3184       H  0.71415953  0.60660640  0.61822401     0.13200
C3185       C  0.64980277  0.61138343  0.60062078     0.02600
N3186       N  0.59260683  0.59600542  0.62798769    -0.81100
H3187       H  0.61476894  0.58436998  0.66466678     0.18000
C3188       C  0.62884443  0.58862104  0.58909093    -0.25900
C3189       C  0.61559109  0.59983924  0.57094716     0.36100
C3190       C  0.62436094  0.63401804  0.56380805    -0.20000
C3191       C  0.64792570  0.65545081  0.57446872    -0.25200
C3192       C  0.66039528  0.64473304  0.59294868     0.27500
H3193       H  0.62096774  0.56282314  0.59477447     0.13200
N3194       N  0.59148159  0.57705499  0.56066159    -0.82500
H3195       H  0.65424534  0.68184459  0.56903053     0.18100
N3196       N  0.68191215  0.66848200  0.60442533    -0.81100
H3197       H  0.56720061  0.59033979  0.55904826     0.33700
H3198       H  0.60197830  0.57226965  0.54673029     0.38200
H3199       H  0.68738003  0.69184494  0.59662274     0.33700
H3200       H  0.66698613  0.67596355  0.61668578     0.30400
H3201       H  0.57509026  0.59050012  0.63952529     0.33700
H3202       H  0.58707247  0.62196924  0.62334288     0.30400
H3203       H  0.75576420  0.08962658  0.64533550     0.38200
H3204       H  0.73943124  0.06233579  0.66261987     0.33700
C3205       C  0.50418306  0.77121664  0.56540528    -0.20000
C3206       C  0.52710278  0.78941270  0.57844889     0.36200
C3207       C  0.01354823  0.78684820  0.59644302    -0.26000
C3208       C  0.97707246  0.78647027  0.60063939     0.02600
C3209       C  0.95261819  0.77733177  0.58581774     0.27400
C3210       C  0.96559800  0.76396669  0.56790129    -0.25100
N3211       N  0.56439192  0.79457391  0.57445233    -0.82500
H3212       H  0.03228306  0.79513907  0.60760114     0.13200
C3213       C  0.96594496  0.79350902  0.62106634     0.02600
N3214       N  0.91500975  0.78209781  0.58887428    -0.81100
H3215       H  0.94706571  0.75411779  0.55704811     0.18000
C3216       C  0.96836801  0.82823508  0.62838144    -0.25900
C3217       C  0.96386719  0.83507772  0.64843516     0.36100
C3218       C  0.95641994  0.80676102  0.66145140    -0.20000
C3219       C  0.95317948  0.77211682  0.65401840    -0.25200
C3220       C  0.95862474  0.76504319  0.63402644     0.27500
H3221       H  0.97485206  0.84999627  0.61854366     0.13200
N3222       N  0.96674276  0.87083989  0.65547778    -0.82500
H3223       H  0.94789015  0.75024564  0.66399105     0.18100
N3224       N  0.45404083  0.73804046  0.62593708    -0.81100
H3225       H  0.94792105  0.88641001  0.64813974     0.33700
H3226       H  0.99206091  0.88042106  0.65182478     0.38200
H3227       H  0.47186042  0.72174584  0.63355608     0.33700
H3228       H  0.42828614  0.72850329  0.62852260     0.30400
H3229       H  0.90085665  0.77486237  0.57632379     0.33700
H3230       H  0.90665799  0.76499695  0.60003000     0.30400
H3231       H  0.57121652  0.78562733  0.56048909     0.38200
H3232       H  0.56916252  0.82199969  0.57435544     0.33700
C3233       C  0.63075454  0.75070663  0.96754456    -0.20000
C3234       C  0.66657615  0.74761997  0.96172228     0.36200
C3235       C  0.67747766  0.76161555  0.94352463    -0.26000
C3236       C  0.65290637  0.77835206  0.93100218     0.02600
C3237       C  0.61724071  0.78197125  0.93710180     0.27400
C3238       C  0.60659954  0.76855356  0.95535622    -0.25100
N3239       N  0.69140110  0.72881970  0.97380303    -0.82500
H3240       H  0.70483666  0.75818835  0.93881458     0.13200
C3241       C  0.66332327  0.78766590  0.91063566     0.02600
N3242       N  0.59124106  0.79716453  0.92423601    -0.81100
H3243       H  0.57879341  0.77020431  0.95956290     0.18000
C3244       C  0.67352870  0.76027451  0.89794537    -0.25900
C3245       C  0.67925649  0.76684828  0.87796069     0.36100
C3246       C  0.67453168  0.80156875  0.87031160    -0.20000
C3247       C  0.66546428  0.82924859  0.88321456    -0.25200
C3248       C  0.66025629  0.82260802  0.90330334     0.27500
H3249       H  0.67591134  0.73329704  0.90346353     0.13200
N3250       N  0.68867708  0.73781188  0.86542146    -0.82500
H3251       H  0.66268057  0.85620331  0.87774233     0.18100
N3252       N  0.65212392  0.85138244  0.91627105    -0.81100
H3253       H  0.66878533  0.71846348  0.86646861     0.33700
H3254       H  0.71244401  0.72671359  0.87060162     0.38200
H3255       H  0.67291267  0.86989886  0.91539571     0.33700
H3256       H  0.62895051  0.86376592  0.91127835     0.30400
H3257       H  0.57156345  0.77801897  0.92168139     0.33700
H3258       H  0.57935205  0.81863469  0.93141435     0.30400
H3259       H  0.70171013  0.70759541  0.96565817     0.38200
H3260       H  0.71236653  0.74606054  0.97704890     0.33700
C3261       C  0.50010449  0.63186179  0.96728368    -0.20000
C3262       C  0.99338117  0.59913468  0.96160710     0.36200
C3263       C  0.98096018  0.58740033  0.94334950    -0.26000
C3264       C  0.96787175  0.61180493  0.92951860     0.02600
C3265       C  0.96480133  0.64808978  0.93457273     0.27400
C3266       C  0.48792275  0.65814911  0.95431673    -0.25100
N3267       N  0.00969117  0.57451770  0.97487679    -0.82500
H3268       H  0.98367740  0.55958519  0.93946173     0.13200
C3269       C  0.96298431  0.60043606  0.90902594     0.02600
N3270       N  0.46637236  0.67756319  0.92255841    -0.81100
H3271       H  0.49015396  0.68599432  0.95826752     0.18000
C3272       C  0.92893660  0.60028705  0.90068920    -0.25900
C3273       C  0.92455189  0.59462638  0.88053451     0.36100
C3274       C  0.95471586  0.58882666  0.86855973    -0.20000
C3275       C  0.98854110  0.58709781  0.87717995    -0.25200
C3276       C  0.99290588  0.59325565  0.89724904     0.27500
H3277       H  0.90581542  0.60549610  0.90976366     0.13200
N3278       N  0.88946558  0.59453576  0.87232976    -0.82500
H3279       H  0.01189102  0.58250958  0.86817929     0.18100
N3280       N  0.02793351  0.59381410  0.90552295    -0.81100
H3281       H  0.87764000  0.61911429  0.87531797     0.33700
H3282       H  0.87458431  0.57479595  0.87943633     0.38200
H3283       H  0.03980458  0.56910123  0.90293215     0.33700
H3284       H  0.54995841  0.60005467  0.89826928     0.30400
H3285       H  0.48222782  0.67575242  0.91001130     0.33700
H3286       H  0.92685316  0.66816068  0.91664575     0.30400
H3287       H  0.99102370  0.55478050  0.97825944     0.38200
H3288       H  0.03106993  0.56243398  0.96765249     0.33700
C3289       C  0.86600787  0.02297015  0.56808200    -0.20000
C3290       C  0.85107372  0.54745755  0.58367687     0.36200
C3291       C  0.86837217  0.56213136  0.59991843    -0.26000
C3292       C  0.90515370  0.55731583  0.60285097     0.02600
C3293       C  0.92508850  0.53889014  0.58847223     0.27400
C3294       C  0.90335698  0.02349241  0.56871456    -0.25100
N3295       N  0.81374806  0.55393043  0.58123856    -0.82500
H3296       H  0.85256542  0.57605410  0.61074412     0.13200
C3297       C  0.92135742  0.56767695  0.62200230     0.02600
N3298       N  0.96307090  0.53552584  0.59035521    -0.81100
H3299       H  0.91832117  0.01103679  0.55700793     0.18000
C3300       C  0.94141279  0.54224906  0.63226291    -0.25900
C3301       C  0.95336779  0.54840699  0.65135567     0.36100
C3302       C  0.94426428  0.58038928  0.66100216    -0.20000
C3303       C  0.92565622  0.60669198  0.65041685    -0.25200
C3304       C  0.91455494  0.60088328  0.63096267     0.27500
H3305       H  0.94695873  0.01323566  0.62160178     0.13200
N3306       N  0.97323656  0.52108894  0.66110724    -0.82500
H3307       H  0.91899821  0.63161042  0.65747872     0.18100
N3308       N  0.89594760  0.62831072  0.62041949    -0.81100
H3309       H  0.99613086  0.01257824  0.64915597     0.33700
H3310       H  0.95782981  0.49790441  0.66138442     0.38200
H3311       H  0.89291064  0.65099391  0.62911117     0.33700
H3312       H  0.91186536  0.63574952  0.60851774     0.30400
H3313       H  0.97365237  0.52096606  0.57868708     0.33700
H3314       H  0.97395861  0.56108876  0.58942025     0.30400
H3315       H  0.80093503  0.05450739  0.56964603     0.38200
H3316       H  0.80024397  0.52963841  0.58148704     0.33700
C3317       C  0.69174352  0.82716195  0.66292910    -0.20000
C3318       C  0.69599707  0.80001251  0.64890382     0.36200
C3319       C  0.70601184  0.80912220  0.62963409    -0.26000
C3320       C  0.71252303  0.84472469  0.62433751     0.02600
C3321       C  0.70848055  0.87175362  0.63851007     0.27400
C3322       C  0.69741696  0.86272337  0.65747946    -0.25100
N3323       N  0.69004935  0.76347191  0.65426461    -0.82500
H3324       H  0.70888261  0.78843587  0.61872388     0.13200
C3325       C  0.72404083  0.85381708  0.60408513     0.02600
N3326       N  0.71668947  0.90818389  0.63374610    -0.81100
H3327       H  0.69491526  0.88349926  0.66837632     0.18000
C3328       C  0.70542697  0.88034477  0.59381711    -0.25900
C3329       C  0.71887224  0.89453571  0.57629420     0.36100
C3330       C  0.75039566  0.88041640  0.56828538    -0.20000
C3331       C  0.76726633  0.85160765  0.57749932    -0.25200
C3332       C  0.75498115  0.83878143  0.59567156     0.27500
H3333       H  0.68137553  0.89144169  0.60011823     0.13200
N3334       N  0.70146592  0.92414201  0.56696317    -0.82500
H3335       H  0.79166725  0.84115903  0.57126691     0.18100
N3336       N  0.77486575  0.81208394  0.60607428    -0.81100
H3337       H  0.71866406  0.94600721  0.56767993     0.33700
H3338       H  0.67849647  0.93127512  0.57468398     0.38200
H3339       H  0.79693152  0.80394854  0.59786239     0.33700
H3340       H  0.78487446  0.82383822  0.61878947     0.30400
H3341       H  0.71220953  0.92473621  0.64578352     0.33700
H3342       H  0.74393449  0.90960945  0.63062420     0.30400
H3343       H  0.66317312  0.76083206  0.65803643     0.38200
H3344       H  0.69441168  0.74680112  0.64225957     0.33700
C3345       C  0.75847374  0.00359286  0.06522448    -0.20000
C3346       C  0.73829345  0.97879078  0.07617084     0.36200
C3347       C  0.72698525  0.98748047  0.09499079    -0.26000
C3348       C  0.73105428  0.52470193  0.10234010     0.02600
C3349       C  0.75166155  0.54868807  0.09107040     0.27400
C3350       C  0.76528909  0.53768266  0.07287789    -0.25100
N3351       N  0.73040212  0.94397712  0.06881449    -0.82500
H3352       H  0.71314145  0.96756581  0.10364609     0.13200
C3353       C  0.72261762  0.53198093  0.12313327     0.02600
N3354       N  0.75960357  0.58354783  0.09849956    -0.81100
H3355       H  0.78274389  0.55511960  0.06459966     0.18000
C3356       C  0.75086064  0.53828070  0.13608717    -0.25900
C3357       C  0.74478464  0.54218203  0.15618705     0.36100
C3358       C  0.70983732  0.53974007  0.16358877    -0.20000
C3359       C  0.68152528  0.53313993  0.15067393    -0.25200
C3360       C  0.68754205  0.52949763  0.13045125     0.27500
H3361       H  0.77797668  0.53922689  0.13062516     0.13200
N3362       N  0.77433620  0.54736547  0.16911131    -0.82500
H3363       H  0.65458539  0.53150188  0.15632985     0.18100
N3364       N  0.65830334  0.52339331  0.11731989    -0.81100
H3365       H  0.78774008  0.57044902  0.16475095     0.33700
H3366       H  0.79176872  0.52585820  0.16744398     0.38200
H3367       H  0.63426553  0.52215849  0.12504671     0.33700
H3368       H  0.65658135  0.54542097  0.10797259     0.30400
H3369       H  0.77528232  0.59776358  0.08850563     0.33700
H3370       H  0.73551687  0.59731464  0.09974497     0.30400
H3371       H  0.71710393  0.94683676  0.05546982     0.38200
H3372       H  0.75424241  0.93039043  0.06631075     0.33700
C3373       C  0.67781959  0.56175377  0.36988165    -0.20000
C3374       C  0.70185520  0.57853388  0.38280061     0.36200
C3375       C  0.69053580  0.58828984  0.40168726    -0.26000
C3376       C  0.65552892  0.58168628  0.40801258     0.02600
C3377       C  0.63197372  0.56369620  0.39543903     0.27400
C3378       C  0.64341925  0.55337566  0.37673116    -0.25100
N3379       N  0.73761558  0.58615518  0.37677166    -0.82500
H3380       H  0.70889075  0.60206020  0.41127473     0.13200
C3381       C  0.64282063  0.59721905  0.42678506     0.02600
N3382       N  0.59568796  0.55784731  0.40112475    -0.81100
H3383       H  0.62431571  0.54078952  0.36710302     0.18000
C3384       C  0.64432059  0.63427074  0.42909888    -0.25900
C3385       C  0.62999074  0.65067193  0.44573827     0.36100
C3386       C  0.61375058  0.62988319  0.46045945    -0.20000
C3387       C  0.61319260  0.59268578  0.45852584    -0.25200
C3388       C  0.62783648  0.57608228  0.44185237     0.27500
H3389       H  0.65581200  0.65069892  0.41763895     0.13200
N3390       N  0.63132353  0.68863520  0.44753022    -0.82500
H3391       H  0.60071045  0.57672476  0.46986084     0.18100
N3392       N  0.62729242  0.53798522  0.44005146    -0.81100
H3393       H  0.61812403  0.69973790  0.43550390     0.33700
H3394       H  0.65799994  0.69651643  0.44687173     0.38200
H3395       H  0.65370682  0.52920860  0.43985731     0.33700
H3396       H  0.61526241  0.52637954  0.45233085     0.30400
H3397       H  0.57926474  0.57059092  0.39093478     0.33700
H3398       H  0.59059879  0.53052383  0.40039993     0.30400
H3399       H  0.75493713  0.57353548  0.38654356     0.38200
H3400       H  0.74166355  0.61361238  0.37788772     0.33700
C3401       C  0.91969982  0.54844386  0.36818915    -0.20000
C3402       C  0.92269465  0.57872994  0.38022534     0.36200
C3403       C  0.91789569  0.57543414  0.40054111    -0.26000
C3404       C  0.90982641  0.54235255  0.40893146     0.02600
C3405       C  0.90672923  0.51198260  0.39692569     0.27400
C3406       C  0.91234104  0.51524715  0.37665369    -0.25100
N3407       N  0.93090761  0.61277020  0.37185575    -0.82500
H3408       H  0.91977964  0.59882205  0.40973612     0.13200
C3409       C  0.90098302  0.53995802  0.42995537     0.02600
N3410       N  0.83999084  0.02297748  0.40037482    -0.81100
H3411       H  0.90966562  0.49210958  0.36732836     0.18000
C3412       C  0.86560311  0.54573674  0.43556184    -0.25900
C3413       C  0.85369195  0.53569373  0.45411851     0.36100
C3414       C  0.86719412  0.02163201  0.46597604    -0.20000
C3415       C  0.89972917  0.00732244  0.45972020    -0.25200
C3416       C  0.92586949  0.52738366  0.44379287     0.27500
H3417       H  0.84659168  0.55580605  0.42498291     0.13200
N3418       N  0.81667397  0.54000566  0.45871243    -0.82500
H3419       H  0.91252962  0.98704286  0.46855855     0.18100
N3420       N  0.96279681  0.52391489  0.43852838    -0.81100
H3421       H  0.80522970  0.51498792  0.46105340     0.33700
H3422       H  0.82143311  0.07590492  0.47434095     0.38200
H3423       H  0.95534915  0.98115044  0.44475622     0.33700
H3424       H  0.96485876  0.50453926  0.42764319     0.30400
H3425       H  0.82336463  0.01802462  0.38842163     0.33700
H3426       H  0.84230812  0.99895921  0.40803474     0.30400
H3427       H  0.91039625  0.63035610  0.37551593     0.38200
H3428       H  0.95436377  0.62205312  0.37831084     0.33700
C3429       C  0.62449802  0.75968089  0.07050431    -0.20000
C3430       C  0.66149413  0.75610164  0.07317663     0.36200
C3431       C  0.67764293  0.77064749  0.08984054    -0.26000
C3432       C  0.65715192  0.78801009  0.10410320     0.02600
C3433       C  0.62024067  0.79203482  0.10128928     0.27400
C3434       C  0.60427414  0.77838998  0.08436792    -0.25100
N3435       N  0.68230385  0.73599587  0.05953417    -0.82500
H3436       H  0.70594517  0.76688129  0.09213615     0.13200
C3437       C  0.67335627  0.79748190  0.12308705     0.02600
N3438       N  0.59862839  0.80790501  0.11620847    -0.81100
H3439       H  0.57568271  0.78057807  0.08257323     0.18000
C3440       C  0.67412819  0.83311012  0.12923242    -0.25900
C3441       C  0.68385104  0.84189391  0.14854172     0.36100
C3442       C  0.69259911  0.81439136  0.16179618    -0.20000
C3443       C  0.69427707  0.77911221  0.15507445    -0.25200
C3444       C  0.68438787  0.77045395  0.13597010     0.27500
H3445       H  0.66595761  0.85386020  0.11914710     0.13200
N3446       N  0.68431459  0.87835997  0.15481832    -0.82500
H3447       H  0.70089857  0.75764660  0.16505881     0.18100
N3448       N  0.68334423  0.73389151  0.13007255    -0.81100
H3449       H  0.67727095  0.89525932  0.14327078     0.33700
H3450       H  0.71059713  0.88465924  0.15850385     0.38200
H3451       H  0.70887489  0.72323100  0.13177821     0.33700
H3452       H  0.66614391  0.72023389  0.13952744     0.30400
H3453       H  0.58505385  0.82943900  0.11000342     0.33700
H3454       H  0.57975292  0.78912876  0.12073920     0.30400
H3455       H  0.70249304  0.75249693  0.05413665     0.38200
H3456       H  0.69423711  0.71494394  0.06712466     0.33700
C3457       C  0.49357208  0.62869620  0.07014663    -0.20000
C3458       C  0.97602722  0.65006841  0.08372825     0.36200
C3459       C  0.96080572  0.63239453  0.09979324    -0.26000
C3460       C  0.96282232  0.59519569  0.10158615     0.02600
C3461       C  0.48422606  0.57362199  0.08857965     0.27400
C3462       C  0.49861224  0.59190978  0.07237455    -0.25100
N3463       N  0.97367473  0.68803337  0.08226298    -0.82500
H3464       H  0.94845722  0.64797581  0.11128358     0.13200
C3465       C  0.95106561  0.57850133  0.12031269     0.02600
N3466       N  0.48983552  0.53599996  0.09087307    -0.81100
H3467       H  0.51486585  0.57777115  0.06182591     0.18000
C3468       C  0.91706992  0.58620299  0.12785122    -0.25900
C3469       C  0.90769825  0.57705204  0.14723114     0.36100
C3470       C  0.93314202  0.56027765  0.15942016    -0.20000
C3471       C  0.96599672  0.55008733  0.15123979    -0.25200
C3472       C  0.97527004  0.55935025  0.13202476     0.27500
H3473       H  0.89825035  0.60056442  0.11878116     0.13200
N3474       N  0.87281982  0.58539947  0.15461751    -0.82500
H3475       H  0.98586131  0.53690386  0.16016489     0.18100
N3476       N  0.51832882  0.56264844  0.12856327    -0.81100
H3477       H  0.86012103  0.56129215  0.15791142     0.33700
H3478       H  0.85749746  0.59780412  0.14383236     0.38200
H3479       H  0.53306679  0.57858827  0.13812670     0.33700
H3480       H  0.52752709  0.53651332  0.12991156     0.30400
H3481       H  0.46495678  0.52362257  0.09026887     0.33700
H3482       H  0.50480368  0.52599876  0.07916830     0.30400
H3483       H  0.94671827  0.69500261  0.08220086     0.38200
H3484       H  0.98528850  0.69900440  0.09477133     0.33700
C3485       C  0.74194353  0.88656510  0.46536299    -0.20000
C3486       C  0.71475829  0.90391860  0.45486762     0.36200
C3487       C  0.70534117  0.89140358  0.43620947    -0.26000
C3488       C  0.72206724  0.86134619  0.42812636     0.02600
C3489       C  0.74660753  0.84191366  0.43962343     0.27400
C3490       C  0.75652812  0.85492409  0.45810040    -0.25100
N3491       N  0.69848906  0.93540325  0.46275313    -0.82500
H3492       H  0.68640379  0.90635307  0.42752194     0.13200
C3493       C  0.71632061  0.85261885  0.40709125     0.02600
N3494       N  0.76236272  0.80984090  0.43213680    -0.81100
H3495       H  0.77737778  0.84170919  0.46631025     0.18000
C3496       C  0.74609981  0.84891543  0.39472460    -0.25900
C3497       C  0.74217698  0.84199170  0.37463544     0.36100
C3498       C  0.70771016  0.83960456  0.36662501    -0.20000
C3499       C  0.67791686  0.84380826  0.37886478    -0.25200
C3500       C  0.68182526  0.84969375  0.39906528     0.27500
H3501       H  0.77260140  0.85204039  0.40072767     0.13200
N3502       N  0.77301250  0.83813130  0.36230031    -0.82500
H3503       H  0.65143567  0.84163486  0.37269590     0.18100
N3504       N  0.65096011  0.85229227  0.41147250    -0.81100
H3505       H  0.79637042  0.84037367  0.37051127     0.33700
H3506       H  0.77306067  0.85932141  0.35233540     0.38200
H3507       H  0.62761903  0.84961371  0.40327123     0.33700
H3508       H  0.65160437  0.83081567  0.42122899     0.30400
H3509       H  0.78014818  0.79901136  0.44229388     0.33700
H3510       H  0.74192155  0.79123013  0.43036483     0.30400
H3511       H  0.68504724  0.92795564  0.47555837     0.38200
H3512       H  0.67919564  0.94525875  0.45314473     0.33700
C3513       C  0.92226203  0.82830518  0.16125322    -0.20000
C3514       C  0.92211991  0.79949721  0.14800556     0.36200
C3515       C  0.91732745  0.80621946  0.12791083    -0.26000
C3516       C  0.91253632  0.84103737  0.12102040     0.02600
C3517       C  0.91295031  0.86979183  0.13424453     0.27400
C3518       C  0.91854109  0.86314859  0.15421522    -0.25100
N3519       N  0.92666220  0.76367130  0.15501801    -0.82500
H3520       H  0.91633982  0.78428436  0.11765346     0.13200
C3521       C  0.90197440  0.84702793  0.10050390     0.02600
N3522       N  0.90543520  0.90531155  0.12749380    -0.81100
H3523       H  0.91841288  0.88511378  0.16447147     0.18000
C3524       C  0.86577547  0.84426268  0.09593292    -0.25900
C3525       C  0.85283531  0.85681661  0.07809506     0.36100
C3526       C  0.87662439  0.87207695  0.06437867    -0.20000
C3527       C  0.91330845  0.87194844  0.06822437    -0.25200
C3528       C  0.92631893  0.85957472  0.08631578     0.27500
H3529       H  0.84715866  0.83429295  0.10680117     0.13200
N3530       N  0.81525506  0.85510946  0.07457719    -0.82500
H3531       H  0.93145044  0.88356602  0.05762540     0.18100
N3532       N  0.96384644  0.86026869  0.09045463    -0.81100
H3533       H  0.80528704  0.88093224  0.07310382     0.33700
H3534       H  0.81112014  0.84156091  0.06143477     0.38200
H3535       H  0.97802481  0.86991864  0.07835834     0.33700
H3536       H  0.96823244  0.87825491  0.10183154     0.30400
H3537       H  0.90518731  0.92314770  0.13921937     0.33700
H3538       H  0.92621201  0.91331051  0.11829554     0.30400
H3539       H  0.95222040  0.76177974  0.16097176     0.38200
H3540       H  0.92566811  0.74563190  0.14339193     0.33700
C3541       C  0.93321153  0.80540352  0.36836996    -0.20000
C3542       C  0.92483642  0.77178211  0.37660441     0.36200
C3543       C  0.93214827  0.76500347  0.39634473    -0.26000
C3544       C  0.94818853  0.79078372  0.40816861     0.02600
C3545       C  0.95535953  0.82484384  0.40033359     0.27400
C3546       C  0.94778532  0.83182677  0.38050297    -0.25100
N3547       N  0.91104565  0.74351073  0.36478388    -0.82500
H3548       H  0.92720517  0.73857164  0.40215932     0.13200
C3549       C  0.96166849  0.77968542  0.42765824     0.02600
N3550       N  0.97114246  0.85180565  0.41242863    -0.81100
H3551       H  0.95414121  0.85770343  0.37438019     0.18000
C3552       C  0.49589083  0.80031871  0.43350092    -0.25900
C3553       C  0.51123778  0.78660833  0.45055249     0.36100
C3554       C  0.49093476  0.76456153  0.46305301    -0.20000
C3555       C  0.95433194  0.74739102  0.45839441    -0.25200
C3556       C  0.93921550  0.76341859  0.44169909     0.27500
H3557       H  0.51246254  0.81528143  0.42340456     0.13200
N3558       N  0.54788023  0.79434227  0.45453406    -0.82500
H3559       H  0.93744037  0.73391326  0.46895191     0.18100
N3560       N  0.90134919  0.76266663  0.43869065    -0.81100
H3561       H  0.56208761  0.77044301  0.45495466     0.33700
H3562       H  0.54940124  0.80620639  0.46834240     0.38200
H3563       H  0.88865223  0.74962029  0.45031268     0.33700
H3564       H  0.89232214  0.78898864  0.43883070     0.30400
H3565       H  0.97500029  0.87528009  0.40443259     0.33700
H3566       H  0.95296895  0.85774923  0.42356395     0.30400
H3567       H  0.92890868  0.72218298  0.36538670     0.38200
H3568       H  0.88688868  0.73511866  0.37088002     0.33700
loop_ 
_geom_bond_atom_site_label_1 
_geom_bond_atom_site_label_2 
_geom_bond_distance 
_geom_bond_site_symmetry_2 
_ccdc_geom_bond_type 
C1            N2   1.360       .  A
C1            N6   1.357       .  A
C1          C865   1.478       .  S
N2            C3   1.358       .  A
C3            N4   1.355       .  A
C3           C25   1.458       .  S
N4            C5   1.354       .  A
C5            N6   1.355       .  A
C5          C132   1.456       .  S
C7            N8   1.361       .  A
C7           N12   1.356       .  A
C7          C837   1.476       .  S
N8            C9   1.360       .  A
C9           N10   1.356       .  A
C9           C75   1.466       .  S
N10          C11   1.356       .  A
C11          N12   1.354       .  A
C11         C110   1.457       .  S
C13          N14   1.357       .  A
C13          N18   1.358       .  A
C13         C822   1.486       .  S
N14          C15   1.357       .  A
C15          N16   1.359       .  A
C15          C45   1.464       .  S
N16          C17   1.359       .  A
C17          N18   1.357       .  A
C17         C102   1.465       .  S
C19          N20   1.362       .  A
C19          N24   1.360       .  A
C19         C794   1.487       .  S
N20          C21   1.360       .  A
C21          N22   1.358       .  A
C21         C117   1.470       .  S
N22          C23   1.358       .  A
C23          N24   1.356       .  A
C23        C1817   1.465       .  S
C25        N1827   1.347       .  A
C25        C1846   1.457       .  S
N26          N43   1.323   1_455  A
N26          N48   1.320       .  A
N26         Co63   2.086       .  S
C27         N944   1.338   1_545  A
C27         C957   1.453       .  S
C27          H72   1.082       .  S
H28          C69   1.082       .  S
C29          N53   1.340   1_655  A
C29         C925   1.458       .  S
C29          H58   1.082       .  S
Co30         N48   2.082       .  S
Co30         N38   2.083       .  S
Co30         N70   2.079       .  S
Co30         N46   2.076       .  S
Co30        Cl74   2.470       .  S
N31         C961   1.338   1_455  A
N31          N38   1.321       .  A
N31         Co32   2.086       .  S
Co32         N35   2.089       .  S
Co32         N52   2.090       .  S
Co32         N39   2.088       .  S
Co32        Cl74   2.432       .  S
C33          N71   1.349       .  A
C33        C1807   1.468       .  S
C33         C921   1.460   1_545  S
N34          N41   1.320       .  A
N34          N64   1.325   1_455  A
N34         Co67   2.083       .  S
N35          N53   1.321       .  A
N35         N963   1.326   1_455  A
N36          C65   1.347       .  A
N36          N46   1.324       .  A
H37          C62   1.082       .  S
N38          N59   1.327   1_455  A
N39          N57   1.321       .  A
N39          N44   1.324       .  A
C40          N44   1.349       .  A
C40          C68   1.455       .  S
C40         C992   1.460       .  S
N41          C56   1.337   1_455  A
N41         Co63   2.074       .  S
C42          N70   1.339       .  A
C42          C45   1.456       .  S
C42          H76   1.082       .  S
N43        C1809   1.348       .  A
C45          N66   1.349       .  A
N46          N52   1.320       .  A
N47          C73   1.338       .  A
N47          N49   1.321       .  A
N47         Co63   2.083       .  S
N48          C62   1.343   1_455  A
N49          N77   1.328       .  A
N49         Co67   2.089       .  S
H50          C73   1.082       .  S
H51          C68   1.082       .  S
N52         C919   1.341       .  A
N53         Co67   2.085       .  S
N54          N66   1.325       .  A
N54          N70   1.320       .  A
N54         Co63   2.083       .  S
C55         N951   1.350   1_545  A
C55          C69   1.454       .  S
C55          C88   1.462       .  S
C56        C1859   1.452       .  S
C56        H1844   1.082       .  S
N57          C68   1.340       .  A
N57         Co67   2.075       .  S
N59         C947   1.350       .  A
H60        C1840   1.082       .  S
C61          N77   1.351       .  A
C61          C73   1.456       .  S
C61          C80   1.468       .  S
C62        C1809   1.460       .  S
Co63        Cl74   2.430       .  S
N64        C1859   1.350       .  A
C65         C919   1.459       .  S
C65         C986   1.463       .  S
Co67        Cl74   2.470       .  S
C69         N923   1.336   1_645  A
N71         N927   1.326   1_645  A
C75        N1848   1.347       .  A
C75        C1840   1.460       .  S
C78          N79   1.364       .  A
C78          N83   1.360       .  A
C78         C766   1.484       .  S
N79          C80   1.361       .  A
C80          N81   1.356       .  A
N81          C82   1.354       .  A
C82          N83   1.353       .  A
C82         C152   1.462       .  S
C84          N85   1.360       .  A
C84          N89   1.361       .  A
C84         C725   1.475       .  S
N85          C86   1.355       .  A
C86          N87   1.351       .  A
C86         C142   1.456       .  S
N87        C1872   1.352       .  A
C88        N1871   1.355       .  A
C88        N1873   1.360       .  A
N89        C1872   1.357       .  A
C90          N91   1.361       .  A
C90          N95   1.359       .  A
C90         C697   1.480       .  S
N91          C92   1.359       .  A
C92          N93   1.356       .  A
C92         C122   1.464       .  S
N93          C94   1.356       .  A
C94          N95   1.355       .  A
C94         C957   1.461       .  S
C96          N97   1.354       .  A
C96         N101   1.356       .  A
C96         C682   1.468       .  S
N97          C98   1.352       .  A
C98          N99   1.356       .  A
C98         C138   1.456       .  S
N99         C100   1.357       .  A
C100        N101   1.356       .  A
C100        C932   1.458       .  S
C102        N120   1.349       .  A
C102        C139   1.457       .  S
N103        N120   1.326       .  A
N103        N125   1.320       .  A
N103       Co140   2.085       .  S
C104        N129   1.335       .  A
C104        C142   1.453       .  S
C104        H149   1.082       .  S
H105        C146   1.082       .  S
C106        N130   1.341       .  A
C106        C110   1.459       .  S
C106        H135   1.082       .  S
Co107       N125   2.080       .  S
Co107       N115   2.071       .  S
Co107       N147   2.077       .  S
Co107       N123   2.080       .  S
Co107      Cl151   2.465       .  S
N108        C146   1.339       .  A
N108        N115   1.319       .  A
N108       Co109   2.079       .  S
Co109       N112   2.074       .  S
Co109       N129   2.074       .  S
Co109       N116   2.089       .  S
Co109      Cl151   2.429       .  S
C110        N148   1.345       .  A
N111        N118   1.320       .  A
N111        N141   1.326       .  A
N111       Co144   2.088       .  S
N112        N130   1.320       .  A
N112        N148   1.322       .  A
N113        C142   1.348       .  A
N113        N123   1.325       .  A
H114        C139   1.082       .  S
N115        N136   1.323       .  A
N116        N134   1.320       .  A
N116        N121   1.325       .  A
C117        N121   1.350       .  A
C117        C145   1.460       .  S
N118        C133   1.337       .  A
N118       Co140   2.075       .  S
C119        N147   1.342       .  A
C119        C122   1.457       .  S
C119        H153   1.082       .  S
C122        N143   1.349       .  A
N123        N129   1.321       .  A
N124        C150   1.339       .  A
N124        N126   1.321       .  A
N124       Co140   2.078       .  S
N125        C139   1.339       .  A
N126        N154   1.322       .  A
N126       Co144   2.079       .  S
H127        C150   1.081       .  S
H128        C145   1.082       .  S
N130       Co144   2.079       .  S
N131        N143   1.324       .  A
N131        N147   1.319       .  A
N131       Co140   2.085       .  S
C132        N136   1.347       .  A
C132        C146   1.455       .  S
C133        C152   1.452       .  S
C133        H137   1.082       .  S
N134        C145   1.343       .  A
N134       Co144   2.088       .  S
C138        N154   1.348       .  A
C138        C150   1.453       .  S
Co140      Cl151   2.432       .  S
N141        C152   1.351       .  A
Co144      Cl151   2.466       .  S
N155        C160   1.354       .  A
N155        C159   1.356       .  A
N155        H187   1.036       .  S
N156        C163   1.348       .  A
N156        C164   1.348       .  A
N157        C162   1.352       .  A
N157        C161   1.351       .  A
N157        H188   1.038       .  S
N158        C165   1.348       .  A
N158        C166   1.351       .  A
C159        C167   1.386       .  A
C159        C175   1.417       .  A
C160        C176   1.418       .  A
C160        C168   1.388       .  A
C161        C169   1.388       .  A
C161        C178   1.413       .  A
C162        C177   1.409       .  A
C162        C170   1.385       .  A
C163        C175   1.409       .  A
C163       C1063   1.387       .  A
C164        C178   1.405       .  A
C164       C1064   1.385       .  A
C165        C173   1.388       .  A
C165        C176   1.411       .  A
C166        C174   1.384       .  A
C166        C177   1.408       .  A
C167        H179   1.082       .  S
C167        C168   1.374       .  A
C168        H180   1.082       .  S
C169        H181   1.082       .  S
C169        C170   1.372       .  A
C170        H182   1.082       .  S
C171        H183   1.082       .  S
C171        C172   1.375       .  A
C171       C1055   1.386       .  A
C172        H184   1.082       .  S
C172       C1056   1.386       .  A
C173        H185   1.082       .  S
C173        C174   1.378       .  A
C174        H186   1.082       .  S
C175        C613   1.488       .  S
C176        C654   1.481       .  S
C177        C809   1.486       .  S
C178        C738   1.477       .  S
N189        C194   1.356       .  A
N189        C193   1.354       .  A
N189        H221   1.035       .  S
N190        C197   1.348       .  A
N190        C198   1.351       .  A
N191        C196   1.350       .  A
N191        C195   1.352       .  A
N191        H222   1.038   1_556  S
N192        C199   1.350       .  A
N192        C200   1.351       .  A
C193        C201   1.388       .  A
C193        C209   1.421       .  A
C194        C210   1.421       .  A
C194        C202   1.387       .  A
C195        C203   1.386       .  A
C195        C212   1.409       .  A
C196        C211   1.413       .  A
C196        C204   1.389       .  A
C197        C209   1.412       .  A
C197        C205   1.388       .  A
C198        C212   1.407   1_554  A
C198        C206   1.384       .  A
C199        C210   1.414       .  A
C199       C1991   1.387   1_455  A
C200        C211   1.410   1_554  A
C200       C1992   1.384   1_455  A
C201        H213   1.083       .  S
C201        C202   1.375       .  A
C202        H214   1.082       .  S
C203        H215   1.082       .  S
C203        C204   1.371       .  A
C204        H216   1.083       .  S
C205        H217   1.082       .  S
C205        C206   1.376       .  A
C206        H218   1.082   1_554  S
C207        H219   1.082       .  S
C207        C208   1.375       .  A
C207       C1983   1.387       .  A
C208        H220   1.082   1_554  S
C208       C1984   1.385       .  A
C209        C753   1.485       .  S
C210        C781   1.494   1_455  S
C211        C585   1.486   1_455  S
C212        C557   1.485       .  S
N223        C228   1.355       .  A
N223        C227   1.354       .  A
N223        H255   1.043       .  S
N224        C231   1.349       .  A
N224        C232   1.350       .  A
N225        C230   1.352       .  A
N225        C229   1.352       .  A
N225        H256   1.041       .  S
N226        C233   1.349       .  A
N226        C234   1.350       .  A
C227        C235   1.388       .  A
C227        C243   1.420       .  A
C228        C244   1.419       .  A
C228        C236   1.387       .  A
C229        C237   1.389       .  A
C229        C246   1.422       .  A
C230        C245   1.421       .  A
C230        C238   1.389       .  A
C231        C243   1.413       .  A
C231        C239   1.387       .  A
C232        C246   1.413       .  A
C232        C240   1.386       .  A
C233        C244   1.412       .  A
C233       C2025   1.386   1_455  A
C234        C245   1.414       .  A
C234       C2026   1.386   1_455  A
C235        H247   1.083       .  S
C235        C236   1.372       .  A
C236        H248   1.082       .  S
C237        H249   1.082       .  S
C237        C238   1.370       .  A
C238        H250   1.082       .  S
C239        H251   1.082       .  S
C239        C240   1.375       .  A
C240        H252   1.082       .  S
C241        H253   1.082       .  S
C241        C242   1.377       .  A
C241       C2017   1.387       .  A
C242        H254   1.082       .  S
C242       C2018   1.385       .  A
C243        C710   1.487       .  S
C244        C878   1.488       .  S
C245        C529   1.485       .  S
C246        C514   1.482       .  S
N257        C262   1.353       .  A
N257        C261   1.353       .  A
N257        H289   1.040       .  S
N258        C265   1.348   1_554  A
N258        C266   1.349       .  A
N259        C264   1.350       .  A
N259        C263   1.349       .  A
N259        H290   1.040       .  S
N260        C267   1.348   1_554  A
N260        C268   1.350       .  A
C261        C269   1.387       .  A
C261        C277   1.416       .  A
C262        C278   1.417       .  A
C262        C270   1.388       .  A
C263        C271   1.389       .  A
C263        C280   1.412       .  A
C264        C279   1.411       .  A
C264        C272   1.387       .  A
C265        C277   1.410       .  A
C265        C273   1.387   1_556  A
C266        C280   1.408       .  A
C266        C274   1.385       .  A
C267        C278   1.410       .  A
C267       C1167   1.387   1_556  A
C268        C279   1.408       .  A
C268       C1168   1.385       .  A
C269        H281   1.083       .  S
C269        C270   1.375       .  A
C270        H282   1.082       .  S
C271        H283   1.082       .  S
C271        C272   1.374       .  A
C272        H284   1.083       .  S
C273        H285   1.082   1_554  S
C273        C274   1.376       .  A
C274        H286   1.082       .  S
C275        H287   1.082   1_554  S
C275        C276   1.377       .  A
C275       C1159   1.386   1_554  A
C276        H288   1.082       .  S
C276       C1160   1.386       .  A
C277        C486   1.485       .  S
C278        C458   1.484       .  S
C279        C669   1.482       .  S
C280        C850   1.478       .  S
C291        N292   1.360       .  A
C291        N296   1.359       .  A
C291        C473   1.485       .  S
N292        C293   1.356       .  A
C293        N294   1.356       .  A
C293       C2206   1.461       .  S
N294        C295   1.355       .  A
C295        N296   1.357       .  A
C295        C327   1.459       .  S
C297        N298   1.363       .  A
C297        N302   1.359       .  A
C297        C598   1.479       .  S
N298        C299   1.358       .  A
C299        N300   1.353       .  A
C299        C432   1.459       .  S
N300        C301   1.350       .  A
C301        N302   1.354       .  A
C301        C357   1.457       .  S
C303        N304   1.358       .  A
C303        N308   1.362       .  A
C303        C445   1.487       .  S
N304        C305   1.354       .  A
C305        N306   1.353       .  A
C305        C367   1.460       .  S
N306        C307   1.356       .  A
C307        N308   1.359       .  A
C307        C412   1.461       .  S
C309        N310   1.355       .  A
C309        N314   1.359       .  A
C309        C570   1.475       .  S
N310        C311   1.355       .  A
C311        N312   1.362       .  A
C311        C392   1.468       .  S
N312        C313   1.362       .  A
C313        N314   1.361       .  A
C313        C347   1.475       .  S
C315        N316   1.356       .  A
C315        N320   1.355       .  A
C315        C501   1.466       .  S
N316        C317   1.355       .  A
C317        N318   1.356       .  A
C317        C342   1.456       .  S
N318        C319   1.356       .  A
C319        N320   1.355       .  A
C319        C428   1.457       .  S
C321        N322   1.361       .  A
C321        N326   1.361       .  A
C321        C626   1.495       .  S
N322        C323   1.359       .  A
C323        N324   1.358       .  A
C323        C407   1.472       .  S
N324        C325   1.360       .  A
C325        N326   1.359       .  A
C325        C335   1.469       .  S
C327        N345   1.349       .  A
C327        C364   1.455       .  S
N328        N345   1.324       .  A
N328        N350   1.320       .  A
N328       Co365   2.085       .  S
C329        N354   1.341       .  A
C329        C367   1.458       .  S
C329        H374   1.082       .  S
H330        C371   1.082       .  S
C331        N355   1.343       .  A
C331        C335   1.461       .  S
C331        H360   1.082       .  S
Co332       N350   2.074       .  S
Co332       N340   2.075       .  S
Co332       N372   2.080       .  S
Co332       N348   2.073       .  S
Co332      Cl376   2.463       .  S
N333        C371   1.338       .  A
N333        N340   1.320       .  A
N333       Co334   2.076       .  S
Co334       N337   2.089       .  S
Co334       N354   2.086       .  S
Co334       N341   2.073       .  S
Co334      Cl376   2.433       .  S
C335        N373   1.348       .  A
N336        N343   1.321       .  A
N336        N366   1.326       .  A
N336       Co369   2.084       .  S
N337        N355   1.321       .  A
N337        N373   1.325       .  A
N338        C367   1.347       .  A
N338        N348   1.323       .  A
H339        C364   1.082       .  S
N340        N361   1.324       .  A
N341        N359   1.320       .  A
N341        N346   1.322       .  A
C342        N346   1.345       .  A
C342        C370   1.456       .  S
N343        C358   1.341       .  A
N343       Co365   2.093       .  S
C344        N372   1.341       .  A
C344        C347   1.458       .  S
C344        H378   1.082       .  S
C347        N368   1.352       .  A
N348        N354   1.320       .  A
N349        C375   1.336       .  A
N349        N351   1.321       .  A
N349       Co365   2.074       .  S
N350        C364   1.339       .  A
N351        N379   1.326       .  A
N351       Co369   2.090       .  S
H352        C375   1.082       .  S
H353        C370   1.082       .  S
N355       Co369   2.093       .  S
N356        N368   1.328       .  A
N356        N372   1.319       .  A
N356       Co365   2.100       .  S
C357        N361   1.347       .  A
C357        C371   1.455       .  S
C358        C377   1.458       .  S
C358        H362   1.082       .  S
N359        C370   1.340       .  A
N359       Co369   2.077       .  S
C363        N379   1.351       .  A
C363        C375   1.453       .  S
C363        C388   1.460       .  S
Co365      Cl376   2.433       .  S
N366        C377   1.350       .  A
Co369      Cl376   2.469       .  S
C377        C382   1.470       .  S
C380        N381   1.361       .  A
C380        N385   1.361       .  A
C380        C542   1.481       .  S
N381        C382   1.360       .  A
C382        N383   1.358       .  A
N383        C384   1.357       .  A
C384        N385   1.359       .  A
C384        C400   1.469       .  S
C386        N387   1.358       .  A
C386        N391   1.361       .  A
C386        C641   1.469       .  S
N387        C388   1.356       .  A
C388        N389   1.356       .  A
N389        C390   1.355       .  A
C390        N391   1.356       .  A
C390        C442   1.464       .  S
C392        N410   1.347       .  A
C392        C429   1.461       .  S
N393        N410   1.326       .  A
N393        N415   1.320       .  A
N393       Co430   2.080       .  S
C394       N1311   1.334   1_545  A
C394        C432   1.451       .  S
C394        H439   1.082       .  S
H395        C436   1.082       .  S
C396        N420   1.339       .  A
C396       C2184   1.457   1_455  S
C396        H425   1.082       .  S
Co397       N415   2.089       .  S
Co397       N405   2.079       .  S
Co397       N437   2.082       .  S
Co397       N413   2.087       .  S
Co397      Cl441   2.469       .  S
N398       C2220   1.339       .  A
N398        N405   1.320   1_655  A
N398      Co2183   2.081   1_655  S
Co399       N419   2.087       .  S
Co399       N406   2.090       .  S
Co399      N2182   2.080       .  S
Co399      N2186   2.093       .  S
Co399     Cl2225   2.432       .  S
C400        N438   1.350       .  A
C400       C2180   1.458       .  S
N401        N408   1.320       .  A
N401        N431   1.327       .  A
N401       Co434   2.088       .  S
N402        N420   1.320       .  A
N402       N2222   1.325   1_455  A
N402      Co2183   2.085       .  S
N403       C2216   1.348   1_455  A
N403       N1305   1.325   1_545  A
H404        C429   1.082       .  S
N405        N426   1.324       .  A
N406       N2208   1.320       .  A
N406       N1303   1.325       .  A
C407        N411   1.352       .  A
C407       C2219   1.458       .  S
N408        C423   1.338       .  A
N408       Co430   2.080       .  S
C409       N1329   1.344   1_545  A
C409        C412   1.459       .  S
C409        H443   1.082       .  S
N411       N1298   1.327   1_545  A
C412        N433   1.346       .  A
N413       N1295   1.327       .  A
N413       N2203   1.321       .  A
N414       C1332   1.338       .  A
N414        N416   1.320       .  A
N414       Co430   2.077       .  S
N415        C429   1.341       .  A
N416       N1336   1.324       .  A
N416       Co434   2.079       .  S
H417        C440   1.082       .  S
H418        C435   1.082       .  S
N419       C1286   1.338       .  A
N419       N2197   1.321       .  A
N420       Co434   2.078       .  S
N421        N437   1.320       .  A
N421       N1325   1.324       .  A
N421       Co430   2.089       .  S
C422        N426   1.348   1_655  A
C422       C2077   1.459       .  S
C422       C2220   1.456       .  S
C423        C442   1.454       .  S
C423        H427   1.082       .  S
N424       C1327   1.343       .  A
N424       N2190   1.320       .  A
N424       Co434   2.089       .  S
C428        N444   1.347       .  A
C428        C440   1.455       .  S
Co430      Cl441   2.430       .  S
N431        C442   1.351       .  A
C432       N2187   1.350       .  A
N433       N1313   1.322   1_545  A
Co434      Cl441   2.469       .  S
C435       N1316   1.342   1_545  A
C435       C2191   1.458   1_455  S
C436       N2182   1.338       .  A
C436       C2206   1.454       .  S
N437       C1301   1.342       .  A
N438       N2186   1.326       .  A
C440       N1306   1.340   1_545  A
Cl441     Co2183   2.431       .  S
N444       N1308   1.322   1_545  A
C445        C446   1.416       .  A
C445        C450   1.406       .  A
C446        C447   1.400       .  A
C446        N451   1.433       .  S
C447        H452   1.084       .  S
C447        C448   1.401       .  A
C448        C453   1.486       .  S
C448        C449   1.411       .  A
C449        C450   1.408       .  A
C449        N454   1.437       .  S
C450        H455   1.084       .  S
N451        H471   1.046       .  S
N451        H472   1.046       .  S
C453        C456   1.405       .  A
C453       C1352   1.410       .  A
N454        H469   1.046       .  S
N454       H1362   1.046       .  S
C456        H461   1.084       .  S
C456        C457   1.401       .  A
C457       C1350   1.413       .  A
C457        N462   1.432       .  S
C458        C459   1.401       .  A
C458       C1349   1.412       .  A
C459        H463   1.084       .  S
C459        C460   1.401       .  A
C460       C1345   1.411       .  A
C460        N464   1.432       .  S
N462        H465   1.044       .  S
N462        H466   1.046       .  S
N464        H467   1.046       .  S
N464        H468   1.045       .  S
H470       N1346   1.046       .  S
C473        C474   1.414       .  A
C473        C478   1.404       .  A
C474        C475   1.408       .  A
C474        N479   1.438       .  S
C475        H480   1.083       .  S
C475        C476   1.406       .  A
C476        C481   1.489       .  S
C476        C477   1.413       .  A
C477        C478   1.401       .  A
C477        N482   1.439       .  S
C478        H483   1.083       .  S
N479        H499   1.046       .  S
N479        H500   1.046       .  S
C481        C484   1.406       .  A
C481        C488   1.412       .  A
N482        H497   1.045       .  S
N482        H498   1.046       .  S
C484        H489   1.084       .  S
C484        C485   1.399       .  A
C485        C486   1.411       .  A
C485        N490   1.432       .  S
C486        C487   1.401       .  A
C487        H491   1.084       .  S
C487        C488   1.402       .  A
C488        N492   1.432       .  S
N490        H493   1.044       .  S
N490        H494   1.046       .  S
N492        H495   1.046       .  S
N492        H496   1.046       .  S
C501        C502   1.409       .  A
C501        C506   1.399       .  A
C502        C503   1.403       .  A
C502        N507   1.438       .  S
C503        H508   1.084       .  S
C503        C504   1.403       .  A
C504        C509   1.481       .  S
C504        C505   1.414       .  A
C505        C506   1.402       .  A
C505        N510   1.439       .  S
C506        H511   1.084       .  S
N507       H1419   1.045       .  S
N507       H1420   1.046       .  S
C509        C512   1.404       .  A
C509        C516   1.413       .  A
N510        H525   1.046       .  S
N510        H526   1.045       .  S
C512        H517   1.084       .  S
C512        C513   1.397       .  A
C513        C514   1.410       .  A
C513        N518   1.432       .  S
C514        C515   1.400       .  A
C515        H519   1.084       .  S
C515        C516   1.403       .  A
C516        N520   1.438       .  S
N518        H521   1.046       .  S
N518        H522   1.045       .  S
N520        H523   1.045       .  S
N520        H524   1.046       .  S
H527       N1399   1.046       .  S
H528       N1399   1.045       .  S
C529        C530   1.415       .  A
C529       C2318   1.401   1_455  A
C530       C2315   1.401       .  A
C530        N535   1.439       .  S
C531        H536   1.084       .  S
C531        C532   1.406       .  A
C531       C2314   1.402       .  A
C532        C537   1.494       .  S
C532        C533   1.414       .  A
C533        C534   1.407       .  A
C533        N538   1.438       .  S
C534        H539   1.084       .  S
C534       C2313   1.403       .  A
N535        H555   1.044       .  S
N535        H556   1.045       .  S
C537        C540   1.405       .  A
C537        C544   1.415       .  A
N538        H553   1.046       .  S
N538        H554   1.046       .  S
C540        H545   1.083       .  S
C540        C541   1.409       .  A
C541        C542   1.412       .  A
C541        N546   1.438       .  S
C542        C543   1.401       .  A
C543        H547   1.084       .  S
C543        C544   1.407       .  A
C544       N2332   1.438       .  S
N546        H549   1.046       .  S
N546        H550   1.045       .  S
N548       C2328   1.439       .  S
N548        H551   1.045       .  S
N548        H552   1.046       .  S
C557        C558   1.405       .  A
C557        C562   1.403       .  A
C558        C559   1.404       .  A
C558        N563   1.431       .  S
C559        H564   1.084       .  S
C559        C560   1.403       .  A
C560        C565   1.479       .  S
C560        C561   1.411       .  A
C561        C562   1.405       .  A
C561        N566   1.438       .  S
C562        H567   1.084       .  S
N563        H583   1.046       .  S
N563        H584   1.045       .  S
C565        C568   1.404       .  A
C565        C572   1.408       .  A
N566        H581   1.046       .  S
N566        H582   1.044       .  S
C568        H573   1.084       .  S
C568        C569   1.406       .  A
C569        C570   1.409       .  A
C569        N574   1.437       .  S
C570        C571   1.405       .  A
C571        H575   1.084       .  S
C571        C572   1.406       .  A
C572        N576   1.438       .  S
N574        H577   1.046       .  S
N574        H578   1.045       .  S
N576        H579   1.046       .  S
N576        H580   1.044       .  S
C585        C590   1.402       .  A
C585       C2370   1.415   1_655  A
C586        C587   1.402       .  A
C586       C2369   1.405       .  A
C586        N591   1.432       .  S
C587        H592   1.084       .  S
C587        C588   1.405       .  A
C588        C593   1.478       .  S
C588        C589   1.413       .  A
C589       C2374   1.394       .  A
C589       N2378   1.434       .  S
C590        H595   1.085       .  S
C590       C2373   1.397       .  A
N591        H611   1.045       .  S
N591        H612   1.046       .  S
C593        C596   1.400       .  A
C593        C600   1.411       .  A
N594       C2373   1.441       .  S
N594        H609   1.046       .  S
N594       H2394   1.041       .  S
C596        H601   1.084       .  S
C596        C597   1.401       .  A
C597        C598   1.414       .  A
C597        N602   1.433       .  S
C598        C599   1.403       .  A
C599        H603   1.084       .  S
C599        C600   1.403       .  A
C600        N604   1.439       .  S
N602        H605   1.046       .  S
N602        H606   1.046       .  S
N604        H607   1.045       .  S
N604       H2392   1.046       .  S
H608       N2388   1.045       .  S
H610       N2378   1.044       .  S
C613        C618   1.403       .  A
C613       C1506   1.412       .  A
C614        C615   1.400       .  A
C614       C1505   1.413       .  A
C614        N619   1.433       .  S
C615        H620   1.084       .  S
C615        C616   1.406       .  A
C616        C621   1.492       .  S
C616        C617   1.414       .  A
C617       C1510   1.408       .  A
C617        N622   1.438       .  S
C618        H623   1.084       .  S
C618       C1509   1.406       .  A
N619        H640   1.044       .  S
N619       H1531   1.045       .  S
C621        C624   1.402       .  A
C621        C628   1.411       .  A
N622        H637   1.045       .  S
N622        H638   1.046       .  S
C624       H1521   1.084       .  S
C624        C625   1.404       .  A
C625        C626   1.419       .  A
C625        N630   1.438       .  S
C626        C627   1.410       .  A
C627        H631   1.083       .  S
C627        C628   1.410       .  A
C628        N632   1.438       .  S
H629       C1516   1.084       .  S
N630        H634   1.046       .  S
N630       H1525   1.046   1_545  S
N632        H635   1.046       .  S
N632        H636   1.045       .  S
H633       N1522   1.046       .  S
H639       N1511   1.046       .  S
C641        C642   1.409       .  A
C641        C646   1.399       .  A
C642        C643   1.409       .  A
C642        N647   1.437       .  S
C643        H648   1.083       .  S
C643        C644   1.405       .  A
C644        C649   1.483       .  S
C644        C645   1.412       .  A
C645        C646   1.398       .  A
C645        N650   1.439       .  S
C646        H651   1.084       .  S
N647        H667   1.046       .  S
N647        H668   1.046       .  S
C649        C652   1.404       .  A
C649        C656   1.412       .  A
N650        H665   1.046       .  S
N650        H666   1.046       .  S
C652        H657   1.084       .  S
C652        C653   1.400       .  A
C653        C654   1.406       .  A
C653        N658   1.438       .  S
C654        C655   1.403       .  A
C655        H659   1.084       .  S
C655        C656   1.407       .  A
C656        N660   1.438       .  S
N658        H661   1.046       .  S
N658        H662   1.045       .  S
N660        H663   1.046       .  S
N660        H664   1.045       .  S
C669        C670   1.412       .  A
C669       C1566   1.401       .  A
C670        C671   1.394       .  A
C670        N675   1.433       .  S
C671        H676   1.084       .  S
C671       C1564   1.402       .  A
C672        C677   1.476       .  S
C672        C673   1.412       .  A
C672       C1563   1.400   1_545  A
C673        C674   1.405       .  A
C673        N678   1.437       .  S
C674        H679   1.084       .  S
C674       C1561   1.401       .  A
N675        H695   1.045       .  S
N675        H696   1.044       .  S
C677        C680   1.403       .  A
C677        C684   1.410       .  A
N678        H693   1.045       .  S
N678        H694   1.046       .  S
C680        H685   1.084       .  S
C680        C681   1.400       .  A
C681        C682   1.409       .  A
C681        N686   1.438       .  S
C682        C683   1.403       .  A
C683        H687   1.084       .  S
C683        C684   1.403       .  A
C684        N688   1.438       .  S
N686        H689   1.042       .  S
N686        H690   1.048       .  S
N688        H691   1.046       .  S
N688        H692   1.045       .  S
C697        C698   1.411       .  A
C697        C702   1.404       .  A
C698        C699   1.409       .  A
C698        N703   1.437       .  S
C699        H704   1.084       .  S
C699        C700   1.405       .  A
C700        C705   1.482       .  S
C700        C701   1.408       .  A
C701        C702   1.399       .  A
C701        N706   1.433       .  S
C702        H707   1.084       .  S
N703        H723   1.046       .  S
N703        H724   1.045       .  S
C705        C708   1.402       .  A
C705        C712   1.410       .  A
N706        H721   1.046       .  S
N706        H722   1.046       .  S
C708        H713   1.084       .  S
C708        C709   1.400       .  A
C709        C710   1.407       .  A
C709        N714   1.432       .  S
C710        C711   1.403       .  A
C711        H715   1.084       .  S
C711        C712   1.405       .  A
C712        N716   1.432       .  S
N714        H717   1.046       .  S
N714        H718   1.045       .  S
N716        H719   1.045       .  S
N716        H720   1.046       .  S
C725        C726   1.411       .  A
C725        C730   1.402       .  A
C726        C727   1.400       .  A
C726        N731   1.433       .  S
C727        H732   1.084       .  S
C727        C728   1.401       .  A
C728        C733   1.479       .  S
C728        C729   1.414       .  A
C729        C730   1.404       .  A
C729       N1626   1.438   1_545  S
C730        H735   1.084   1_545  S
N731        H751   1.046       .  S
N731        H752   1.045       .  S
C733        C736   1.403       .  A
C733        C740   1.410       .  A
N734       C1621   1.433       .  S
N734        H749   1.045       .  S
N734        H750   1.046       .  S
C736        H741   1.084       .  S
C736        C737   1.393       .  A
C737       C1630   1.410       .  A
C737        N742   1.433       .  S
C738        C739   1.401       .  A
C738       C1629   1.408       .  A
C739        H743   1.084       .  S
C739       C1632   1.402       .  A
C740       C1631   1.402       .  A
C740        N744   1.432       .  S
N742        H745   1.046       .  S
N742       H1638   1.045       .  S
N744        H748   1.046   1_545  S
N744       H1639   1.045       .  S
H746       N1634   1.046       .  S
H747       N1636   1.044       .  S
C753        C754   1.410       .  A
C753        C758   1.400       .  A
C754        C755   1.406       .  A
C754        N759   1.438       .  S
C755        H760   1.084       .  S
C755        C756   1.405       .  A
C756        C761   1.483       .  S
C756        C757   1.412       .  A
C757        C758   1.401       .  A
C757        N762   1.438       .  S
C758        H763   1.084       .  S
N759        H779   1.046       .  S
N759        H780   1.046       .  S
C761        C764   1.405       .  A
C761        C768   1.410       .  A
N762        H777   1.046       .  S
N762        H778   1.045       .  S
C764        H769   1.084       .  S
C764        C765   1.408       .  A
C765        C766   1.412       .  A
C765        N770   1.437       .  S
C766        C767   1.406       .  A
C767        H771   1.083       .  S
C767        C768   1.401       .  A
C768        N772   1.439       .  S
N770        H773   1.045       .  S
N770        H774   1.046       .  S
N772        H775   1.046       .  S
N772        H776   1.046       .  S
C781        C786   1.405       .  A
C781       C2566   1.412       .  A
C782        C783   1.401       .  A
C782       C2565   1.407       .  A
C782        N787   1.432       .  S
C783        H788   1.084       .  S
C783        C784   1.404       .  A
C784        C789   1.486       .  S
C784       C2569   1.413       .  A
C785        C786   1.405       .  A
C785       C2568   1.409       .  A
C785        N790   1.432       .  S
C786        H791   1.084   1_655  S
N787        H807   1.046       .  S
N787        H808   1.045       .  S
C789        C792   1.404       .  A
C789        C796   1.408       .  A
N790        H805   1.046       .  S
N790        H806   1.045   1_655  S
C792        H797   1.084       .  S
C792        C793   1.409       .  A
C793        C794   1.414       .  A
C793        N798   1.437       .  S
C794        C795   1.406       .  A
C795        H799   1.084       .  S
C795        C796   1.400       .  A
C796       N2584   1.433       .  S
N798        H801   1.046       .  S
N798        H802   1.045       .  S
N800       C2580   1.433   1_455  S
N800        H803   1.046       .  S
N800        H804   1.045       .  S
C809        C810   1.409       .  A
C809        C814   1.401       .  A
C810        C811   1.404       .  A
C810        N815   1.438       .  S
C811        H816   1.083       .  S
C811        C812   1.405       .  A
C812        C817   1.493       .  S
C812        C813   1.416       .  A
C813        C814   1.408       .  A
C813        N818   1.438       .  S
C814        H819   1.083       .  S
N815        H835   1.046       .  S
N815        H836   1.046       .  S
C817        C820   1.405       .  A
C817        C824   1.413       .  A
N818        H833   1.045       .  S
N818        H834   1.045       .  S
C820        H825   1.083       .  S
C820        C821   1.405       .  A
C821        C822   1.414       .  A
C821        N826   1.438       .  S
C822        C823   1.406       .  A
C823        H827   1.083       .  S
C823        C824   1.406       .  A
C824        N828   1.438       .  S
N826        H829   1.046       .  S
N826        H830   1.045       .  S
N828        H831   1.046       .  S
N828        H832   1.045       .  S
C837        C838   1.415       .  A
C837        C842   1.401       .  A
C838        C839   1.405       .  A
C838        N843   1.438       .  S
C839        H844   1.084       .  S
C839        C840   1.401       .  A
C840        C845   1.480       .  S
C840        C841   1.410       .  A
C841        C842   1.400       .  A
C841        N846   1.433       .  S
C842        H847   1.084       .  S
N843        H863   1.045       .  S
N843        H864   1.046       .  S
C845        C848   1.402       .  A
C845        C852   1.410       .  A
N846        H861   1.046       .  S
N846        H862   1.045       .  S
C848        H853   1.084       .  S
C848        C849   1.396       .  A
C849        C850   1.412       .  A
C849        N854   1.433       .  S
C850        C851   1.400       .  A
C851        H855   1.084       .  S
C851        C852   1.402       .  A
C852        N856   1.432       .  S
N854        H857   1.045       .  S
N854        H858   1.046       .  S
N856        H859   1.045       .  S
N856        H860   1.045       .  S
C865        C866   1.412       .  A
C865        C870   1.404       .  A
C866        C867   1.399       .  A
C866        N871   1.433       .  S
C867        H872   1.084       .  S
C867        C868   1.401       .  A
C868        C873   1.481       .  S
C868        C869   1.410       .  A
C869        C870   1.407       .  A
C869        N874   1.437       .  S
C870        H875   1.084       .  S
N871        H891   1.046       .  S
N871        H892   1.046       .  S
C873        C880   1.411       .  A
C873       C2660   1.404       .  A
N874        H889   1.046       .  S
N874        H890   1.046       .  S
C876        H881   1.083       .  S
C876        C877   1.397       .  A
C876       C2657   1.406   1_455  A
C877        C878   1.410       .  A
C877        N882   1.433       .  S
C878       C2663   1.402   1_455  A
C879        H883   1.084       .  S
C879        C880   1.405       .  A
C879       C2662   1.401       .  A
C880        N884   1.437       .  S
N882        H885   1.044       .  S
N882        H886   1.046       .  S
N884        H887   1.046       .  S
N884        H888   1.046       .  S
C893        N894   1.361       .  A
C893        N898   1.360       .  A
C893       C1757   1.487       .  S
N894        C895   1.359       .  A
C895        N896   1.355       .  A
C895        C917   1.462       .  S
N896        C897   1.355       .  A
C897        N898   1.357       .  A
C897       C1024   1.463       .  S
C899        N900   1.360       .  A
C899        N904   1.360       .  A
C899       C1729   1.483       .  S
N900        C901   1.358       .  A
C901        N902   1.357       .  A
C901        C967   1.463       .  S
N902        C903   1.356       .  A
C903        N904   1.357       .  A
C903       C1002   1.465       .  S
C905        N906   1.361       .  A
C905        N910   1.357       .  A
C905       C1714   1.487       .  S
N906        C907   1.361       .  A
C907        N908   1.359       .  A
C907        C937   1.470       .  S
N908        C909   1.358       .  A
C909        N910   1.357       .  A
C909        C994   1.464       .  S
C911        N912   1.360       .  A
C911        N916   1.358       .  A
C911       C1686   1.483       .  S
N912        C913   1.359       .  A
C913        N914   1.358       .  A
C913       C1009   1.465       .  S
N914        C915   1.357       .  A
C915        N916   1.356       .  A
C915       C2709   1.464       .  S
C917       N2719   1.349       .  A
C917       C2738   1.457       .  S
N918        N935   1.324   1_455  A
N918        N940   1.321       .  A
N918       Co955   2.085       .  S
C919        H964   1.082       .  S
H920        C961   1.082       .  S
C921        N945   1.342   1_655  A
C921        H950   1.082       .  S
Co922       N940   2.085       .  S
Co922       N930   2.085       .  S
Co922       N962   2.081       .  S
Co922       N938   2.085       .  S
Co922      Cl966   2.471       .  S
N923        N930   1.321       .  A
N923       Co924   2.076       .  S
Co924       N927   2.087       .  S
Co924       N944   2.076       .  S
Co924       N931   2.077       .  S
Co924      Cl966   2.429       .  S
C925        N963   1.349       .  A
C925       C2699   1.466       .  S
N926        N933   1.321       .  A
N926        N956   1.325   1_455  A
N926       Co959   2.081       .  S
N927        N945   1.320       .  A
N928        C957   1.350   1_565  A
N928        N938   1.325       .  A
H929        C954   1.082       .  S
N930        N951   1.327   1_455  A
N931        N949   1.320       .  A
N931        N936   1.323   1_565  A
C932        N936   1.346       .  A
C932        C960   1.457   1_545  S
N933        C948   1.341   1_455  A
N933       Co955   2.092       .  S
C934        N962   1.340       .  A
C934        C937   1.457       .  S
C934        H968   1.082       .  S
N935       C2701   1.348       .  A
C937        N958   1.352       .  A
N938        N944   1.320       .  A
N939        C965   1.336       .  A
N939        N941   1.321       .  A
N939       Co955   2.082       .  S
N940        C954   1.342   1_455  A
N941        N969   1.327       .  A
N941       Co959   2.083       .  S
H942        C965   1.082       .  S
H943        C960   1.082       .  S
N945       Co959   2.087       .  S
N946        N958   1.327       .  A
N946        N962   1.321       .  A
N946       Co955   2.097       .  S
C947        C961   1.456       .  S
C947        C980   1.465       .  S
C948       C2751   1.458       .  S
C948       H2736   1.082       .  S
N949        C960   1.340       .  A
N949       Co959   2.077       .  S
H952       C2732   1.082       .  S
C953        N969   1.349       .  A
C953        C965   1.455       .  S
C953        C972   1.463       .  S
C954       C2701   1.458       .  S
Co955      Cl966   2.430       .  S
N956       C2751   1.349       .  A
Co959      Cl966   2.472       .  S
C967       N2740   1.350       .  A
C967       C2732   1.455       .  S
C970        N971   1.363       .  A
C970        N975   1.360       .  A
C970       C1658   1.480       .  S
N971        C972   1.361       .  A
C972        N973   1.354       .  A
N973        C974   1.351       .  A
C974        N975   1.354       .  A
C974       C1044   1.458       .  S
C976        N977   1.358       .  A
C976        N981   1.364       .  A
C976       C1617   1.483       .  S
N977        C978   1.353       .  A
C978        N979   1.351       .  A
C978       C1034   1.458       .  S
N979       C2764   1.354       .  A
C980       N2763   1.354       .  A
C980       N2765   1.359       .  A
N981       C2764   1.361       .  A
C982        N983   1.366       .  A
C982        N987   1.361       .  A
C982       C1589   1.494       .  S
N983        C984   1.363       .  A
C984        N985   1.355       .  A
C984       C1014   1.468       .  S
N985        C986   1.353       .  A
C986        N987   1.356       .  A
C988        N989   1.360       .  A
C988        N993   1.360       .  A
C988       C1574   1.488       .  S
N989        C990   1.357       .  A
C990        N991   1.354       .  A
C990       C1030   1.462       .  S
N991        C992   1.354       .  A
C992        N993   1.357       .  A
C994       N1012   1.350       .  A
C994       C1031   1.455       .  S
N995       N1012   1.326       .  A
N995       N1017   1.320       .  A
N995      Co1032   2.089       .  S
C996       N1021   1.338       .  A
C996       C1034   1.455       .  S
C996       H1041   1.082       .  S
H997       C1038   1.082       .  S
C998       N1022   1.341       .  A
C998       C1002   1.458       .  S
C998       H1027   1.082       .  S
Co999      N1017   2.073       .  S
Co999      N1007   2.082       .  S
Co999      N1039   2.085       .  S
Co999      N1015   2.074       .  S
Co999     Cl1043   2.468       .  S
N1000      C1038   1.340       .  A
N1000      N1007   1.320       .  A
N1000     Co1001   2.084       .  S
Co1001     N1004   2.086       .  S
Co1001     N1021   2.081       .  S
Co1001     N1008   2.088       .  S
Co1001    Cl1043   2.433       .  S
C1002      N1040   1.349       .  A
N1003      N1010   1.321       .  A
N1003      N1033   1.324       .  A
N1003     Co1036   2.079       .  S
N1004      N1022   1.320       .  A
N1004      N1040   1.325       .  A
N1005      C1034   1.347       .  A
N1005      N1015   1.323       .  A
H1006      C1031   1.082       .  S
N1007      N1028   1.325       .  A
N1008      N1026   1.320       .  A
N1008      N1013   1.325       .  A
C1009      N1013   1.349       .  A
C1009      C1037   1.458       .  S
N1010      C1025   1.338       .  A
N1010     Co1032   2.080       .  S
C1011      N1039   1.345       .  A
C1011      C1014   1.459       .  S
C1011      H1045   1.082       .  S
C1014      N1035   1.349       .  A
N1015      N1021   1.320       .  A
N1016      C1042   1.339       .  A
N1016      N1018   1.321       .  A
N1016     Co1032   2.084       .  S
N1017      C1031   1.338       .  A
N1018      N1046   1.325       .  A
N1018     Co1036   2.081       .  S
H1019      C1042   1.082       .  S
H1020      C1037   1.082       .  S
N1022     Co1036   2.082       .  S
N1023      N1035   1.323       .  A
N1023      N1039   1.320       .  A
N1023     Co1032   2.090       .  S
C1024      N1028   1.349       .  A
C1024      C1038   1.457       .  S
C1025      C1044   1.454       .  S
C1025      H1029   1.082       .  S
N1026      C1037   1.342       .  A
N1026     Co1036   2.082       .  S
C1030      N1046   1.348       .  A
C1030      C1042   1.456       .  S
Co1032    Cl1043   2.432       .  S
N1033      C1044   1.348       .  A
Co1036    Cl1043   2.467       .  S
N1047      C1052   1.353       .  A
N1047      C1051   1.357       .  A
N1047      H1079   1.033       .  S
N1048      C1055   1.350   1_565  A
N1048      C1056   1.348   1_565  A
N1049      C1054   1.354       .  A
N1049      C1053   1.351       .  A
N1049      H1080   1.032       .  S
N1050      C1057   1.350       .  A
N1050      C1058   1.354       .  A
C1051      C1059   1.385       .  A
C1051      C1067   1.418       .  A
C1052      C1068   1.422       .  A
C1052      C1060   1.391       .  A
C1053      C1061   1.390       .  A
C1053      C1070   1.416       .  A
C1054      C1069   1.413       .  A
C1054      C1062   1.386       .  A
C1055      C1067   1.410   1_545  A
C1056      C1070   1.408   1_545  A
C1057      C1065   1.388       .  A
C1057      C1068   1.417       .  A
C1058      C1066   1.383       .  A
C1058      C1069   1.413       .  A
C1059      H1071   1.082       .  S
C1059      C1060   1.374       .  A
C1060      H1072   1.081       .  S
C1061      H1073   1.082       .  S
C1061      C1062   1.370       .  A
C1062      H1074   1.082       .  S
C1063      H1075   1.082       .  S
C1063      C1064   1.376       .  A
C1064      H1076   1.082       .  S
C1065      H1077   1.082       .  S
C1065      C1066   1.377       .  A
C1066      H1078   1.082       .  S
C1067      C1505   1.493   1_565  S
C1068      C1546   1.485       .  S
C1069      C1701   1.492       .  S
C1070      C1630   1.476   1_565  S
N1081      C1086   1.355       .  A
N1081      C1085   1.355       .  A
N1081      H1113   1.030       .  S
N1082      C1089   1.347       .  A
N1082      C1090   1.349       .  A
N1083      C1088   1.352       .  A
N1083      C1087   1.352       .  A
N1083      H1114   1.031   1_556  S
N1084      C1091   1.349       .  A
N1084      C1092   1.350       .  A
C1085      C1093   1.388       .  A
C1085      C1101   1.419       .  A
C1086      C1102   1.419       .  A
C1086      C1094   1.387       .  A
C1087      C1095   1.388       .  A
C1087      C1104   1.412       .  A
C1088      C1103   1.411       .  A
C1088      C1096   1.386       .  A
C1089      C1101   1.410       .  A
C1089      C1097   1.388       .  A
C1090      C1104   1.406   1_554  A
C1090      C1098   1.385       .  A
C1091      C2883   1.387   1_455  A
C1091      C1102   1.412       .  A
C1092      C2884   1.384   1_455  A
C1092      C1103   1.408   1_554  A
C1093      H1105   1.082       .  S
C1093      C1094   1.375       .  A
C1094      H1106   1.082       .  S
C1095      H1107   1.082       .  S
C1095      C1096   1.369       .  A
C1096      H1108   1.083       .  S
C1097      H1109   1.082       .  S
C1097      C1098   1.376       .  A
C1098      H1110   1.082   1_554  S
C1099      H1111   1.082       .  S
C1099      C2875   1.386       .  A
C1099      C1100   1.377       .  A
C1100      H1112   1.082   1_554  S
C1100      C2876   1.385       .  A
C1101      C1645   1.482       .  S
C1102      C1673   1.490   1_455  S
C1103      C1477   1.483   1_455  S
C1104      C1449   1.479       .  S
N1115      C1120   1.352       .  A
N1115      C1119   1.354       .  A
N1115      H1147   1.037       .  S
N1116      C1123   1.349       .  A
N1116      C1124   1.348       .  A
N1117      C1122   1.353       .  A
N1117      C1121   1.352       .  A
N1117      H1148   1.037       .  S
N1118      C1125   1.349       .  A
N1118      C1126   1.352       .  A
C1119      C1127   1.386       .  A
C1119      C1135   1.416       .  A
C1120      C1136   1.415       .  A
C1120      C1128   1.387       .  A
C1121      C1129   1.388       .  A
C1121      C1138   1.414       .  A
C1122      C1137   1.415       .  A
C1122      C1130   1.387       .  A
C1123      C1135   1.410       .  A
C1123      C1131   1.386       .  A
C1124      C1138   1.408       .  A
C1124      C1132   1.386       .  A
C1125      C2917   1.387   1_455  A
C1125      C1136   1.412       .  A
C1126      C2918   1.385   1_455  A
C1126      C1137   1.411       .  A
C1127      H1139   1.083       .  S
C1127      C1128   1.376       .  A
C1128      H1140   1.082       .  S
C1129      H1141   1.083       .  S
C1129      C1130   1.372       .  A
C1130      H1142   1.083       .  S
C1131      H1143   1.082       .  S
C1131      C1132   1.377       .  A
C1132      H1144   1.082       .  S
C1133      H1145   1.082       .  S
C1133      C2909   1.386       .  A
C1133      C1134   1.375       .  A
C1134      H1146   1.082       .  S
C1134      C2910   1.386       .  A
C1135      C1602   1.490       .  S
C1136      C1770   1.486   1_455  S
C1137      C1421   1.493       .  S
C1138      C1406   1.481       .  S
N1149      C1154   1.355       .  A
N1149      C1153   1.353       .  A
N1149      H1181   1.036       .  S
N1150      C1157   1.346   1_554  A
N1150      C1158   1.350       .  A
N1151      C1156   1.349       .  A
N1151      C1155   1.351       .  A
N1151      H1182   1.037       .  S
N1152      C1159   1.349   1_564  A
N1152      C1160   1.348   1_565  A
C1153      C1161   1.389       .  A
C1153      C1169   1.418       .  A
C1154      C1170   1.415       .  A
C1154      C1162   1.385       .  A
C1155      C1163   1.386       .  A
C1155      C1172   1.410       .  A
C1156      C1171   1.409   1_565  A
C1156      C1164   1.388       .  A
C1157      C1169   1.410       .  A
C1157      C1165   1.387   1_556  A
C1158      C1172   1.408       .  A
C1158      C1166   1.384       .  A
C1159      C1170   1.409   1_545  A
C1160      C1171   1.408       .  A
C1161      H1173   1.082       .  S
C1161      C1162   1.373       .  A
C1162      H1174   1.082       .  S
C1163      H1175   1.082       .  S
C1163      C1164   1.373       .  A
C1164      H1176   1.082   1_565  S
C1165      H1177   1.082   1_554  S
C1165      C1166   1.379       .  A
C1166      H1178   1.082       .  S
C1167      H1179   1.082   1_554  S
C1167      C1168   1.375       .  A
C1168      H1180   1.082       .  S
C1169      C1378   1.483       .  S
C1170      C1350   1.489   1_565  S
C1171      C1561   1.475       .  S
C1172      C1742   1.484       .  S
C1183      N1184   1.359       .  A
C1183      N1188   1.359       .  A
C1183      C1365   1.482       .  S
N1184      C1185   1.356       .  A
C1185      N1186   1.357       .  A
C1185      C3098   1.461       .  S
N1186      C1187   1.357       .  A
C1187      N1188   1.356       .  A
C1187      C1219   1.463       .  S
C1189      N1190   1.365       .  A
C1189      N1194   1.360       .  A
C1189      C1490   1.485       .  S
N1190      C1191   1.361       .  A
C1191      N1192   1.353       .  A
C1191      C1324   1.466       .  S
N1192      C1193   1.353       .  A
C1193      N1194   1.355       .  A
C1193      C1249   1.461       .  S
C1195      N1196   1.359       .  A
C1195      N1200   1.362       .  A
C1195      C1337   1.490       .  S
N1196      C1197   1.355       .  A
C1197      N1198   1.356       .  A
C1197      C1259   1.464       .  S
N1198      C1199   1.357       .  A
C1199      N1200   1.360       .  A
C1199      C1304   1.465       .  S
C1201      N1202   1.354       .  A
C1201      N1206   1.355       .  A
C1201      C1462   1.465       .  S
N1202      C1203   1.355       .  A
C1203      N1204   1.363       .  A
C1203      C1284   1.469       .  S
N1204      C1205   1.363       .  A
C1205      N1206   1.356       .  A
C1205      C1239   1.468       .  S
C1207      N1208   1.358       .  A
C1207      N1212   1.359       .  A
C1207      C1393   1.479       .  S
N1208      C1209   1.355       .  A
C1209      N1210   1.355       .  A
C1209      C1234   1.459       .  S
N1210      C1211   1.355       .  A
C1211      N1212   1.356       .  A
C1211      C1320   1.459       .  S
C1213      N1214   1.359       .  A
C1213      N1218   1.361       .  A
C1213      C1518   1.490       .  S
N1214      C1215   1.356       .  A
C1215      N1216   1.357       .  A
C1215      C1299   1.465       .  S
N1216      C1217   1.358       .  A
C1217      N1218   1.359       .  A
C1217      C1227   1.464       .  S
C1219      N1237   1.348       .  A
C1219      C1256   1.459       .  S
N1220      N1237   1.324       .  A
N1220      N1242   1.320       .  A
N1220     Co1257   2.084       .  S
C1221      N1246   1.339       .  A
C1221      C1259   1.455       .  S
C1221      H1266   1.082       .  S
H1222      C1263   1.082       .  S
C1223      N1247   1.342       .  A
C1223      C1227   1.459       .  S
C1223      H1252   1.082       .  S
Co1224     N1242   2.086       .  S
Co1224     N1232   2.084       .  S
Co1224     N1264   2.088       .  S
Co1224     N1240   2.089       .  S
Co1224    Cl1268   2.472       .  S
N1225      C1263   1.337       .  A
N1225      N1232   1.320       .  A
N1225     Co1226   2.075       .  S
Co1226     N1229   2.085       .  S
Co1226     N1246   2.082       .  S
Co1226     N1233   2.077       .  S
Co1226    Cl1268   2.426       .  S
C1227      N1265   1.348       .  A
N1228      N1235   1.320       .  A
N1228      N1258   1.325       .  A
N1228     Co1261   2.082       .  S
N1229      N1247   1.321       .  A
N1229      N1265   1.324       .  A
N1230      C1259   1.351       .  A
N1230      N1240   1.326       .  A
H1231      C1256   1.082       .  S
N1232      N1253   1.326       .  A
N1233      N1251   1.320       .  A
N1233      N1238   1.323       .  A
C1234      N1238   1.346       .  A
C1234      C1262   1.457       .  S
N1235      C1250   1.338       .  A
N1235     Co1257   2.077       .  S
C1236      N1264   1.341       .  A
C1236      C1239   1.461       .  S
C1236      H1270   1.082       .  S
C1239      N1260   1.347       .  A
N1240      N1246   1.321       .  A
N1241      C1267   1.337       .  A
N1241      N1243   1.321       .  A
N1241     Co1257   2.079       .  S
N1242      C1256   1.342       .  A
N1243      N1271   1.326       .  A
N1243     Co1261   2.084       .  S
H1244      C1267   1.082       .  S
H1245      C1262   1.082       .  S
N1247     Co1261   2.083       .  S
N1248      N1260   1.326       .  A
N1248      N1264   1.320       .  A
N1248     Co1257   2.082       .  S
C1249      N1253   1.350       .  A
C1249      C1263   1.453       .  S
C1250      C1269   1.454       .  S
C1250      H1254   1.082       .  S
N1251      C1262   1.340       .  A
N1251     Co1261   2.078       .  S
C1255      N1271   1.349       .  A
C1255      C1267   1.454       .  S
C1255      C1280   1.461       .  S
Co1257    Cl1268   2.428       .  S
N1258      C1269   1.350       .  A
Co1261    Cl1268   2.472       .  S
C1269      C1274   1.461       .  S
C1272      N1273   1.360       .  A
C1272      N1277   1.357       .  A
C1272      C1434   1.477       .  S
N1273      C1274   1.358       .  A
C1274      N1275   1.356       .  A
N1275      C1276   1.355       .  A
C1276      N1277   1.354       .  A
C1276      C1292   1.458       .  S
C1278      N1279   1.361       .  A
C1278      N1283   1.360       .  A
C1278      C1533   1.477       .  S
N1279      C1280   1.358       .  A
C1280      N1281   1.354       .  A
N1281      C1282   1.353       .  A
C1282      N1283   1.355       .  A
C1282      C1334   1.459       .  S
C1284      N1302   1.349       .  A
C1284      C1321   1.461       .  S
N1285      N1302   1.326       .  A
N1285      N1307   1.320       .  A
N1285     Co1322   2.086       .  S
C1286      C1324   1.457       .  S
C1286      H1331   1.082       .  S
H1287      C1328   1.081       .  S
C1288      N1312   1.341       .  A
C1288      C3076   1.459   1_455  S
C1288      H1317   1.082       .  S
Co1289     N1307   2.088       .  S
Co1289     N1297   2.083       .  S
Co1289     N1329   2.083       .  S
Co1289     N1305   2.080       .  S
Co1289    Cl1333   2.470       .  S
N1290      C3112   1.339       .  A
N1290      N1297   1.320   1_655  A
N1290     Co3075   2.082   1_655  S
Co1291     N3074   2.084       .  S
Co1291     N3078   2.073       .  S
Co1291     N1311   2.068       .  S
Co1291     N1298   2.100       .  S
Co1291    Cl3117   2.429       .  S
C1292      N1330   1.346       .  A
C1292      C3072   1.457       .  S
N1293      N1300   1.320       .  A
N1293      N1323   1.326       .  A
N1293     Co1326   2.086       .  S
N1294      N1312   1.321       .  A
N1294      N3114   1.324   1_455  A
N1294     Co3075   2.086       .  S
N1295      C3108   1.350   1_455  A
H1296      C1321   1.082       .  S
N1297      N1318   1.325       .  A
N1298      N3100   1.320       .  A
C1299      N1303   1.350       .  A
C1299      C3111   1.458       .  S
N1300      C1315   1.335       .  A
N1300     Co1322   2.069       .  S
C1301      C1304   1.458       .  S
C1301      H1335   1.082       .  S
C1304      N1325   1.349       .  A
N1305      N3095   1.321       .  A
N1306      N1308   1.320       .  A
N1306     Co1322   2.080       .  S
N1307      C1321   1.340       .  A
N1308     Co1326   2.075       .  S
H1309      C1332   1.082       .  S
H1310      C1327   1.082       .  S
N1311      N3089   1.320       .  A
N1312     Co1326   2.082       .  S
N1313      N1329   1.319       .  A
N1313     Co1322   2.076       .  S
C1314      N1318   1.349   1_655  A
C1314      C2969   1.462       .  S
C1314      C3112   1.455       .  S
C1315      C1334   1.451       .  S
C1315      H1319   1.082       .  S
N1316      N3082   1.320       .  A
N1316     Co1326   2.082       .  S
C1320      N1336   1.348       .  A
C1320      C1332   1.454       .  S
Co1322    Cl1333   2.430       .  S
N1323      C1334   1.350       .  A
C1324      N3079   1.348       .  A
Co1326    Cl1333   2.468       .  S
C1327      C3083   1.460   1_455  S
C1328      N3074   1.339       .  A
C1328      C3098   1.454       .  S
N1330      N3078   1.323       .  A
Cl1333    Co3075   2.429       .  S
C1337      C1338   1.416       .  A
C1337      C1342   1.408       .  A
C1338      C1339   1.398       .  A
C1338      N1343   1.433       .  S
C1339      H1344   1.084       .  S
C1339      C1340   1.400       .  A
C1340      C1345   1.487       .  S
C1340      C1341   1.412       .  A
C1341      C1342   1.410       .  A
C1341      N1346   1.437       .  S
C1342      H1347   1.083       .  S
N1343      H1363   1.046       .  S
N1343      H1364   1.046       .  S
C1345      C1348   1.407       .  A
N1346      H1361   1.045       .  S
C1348      H1353   1.084       .  S
C1348      C1349   1.399       .  A
C1349      N1354   1.433       .  S
C1350      C1351   1.403   1_545  A
C1351      H1355   1.084       .  S
C1351      C1352   1.402   1_565  A
C1352      N1356   1.433   1_545  S
N1354      H1357   1.044       .  S
N1354      H1358   1.046       .  S
N1356      H1359   1.046       .  S
N1356      H1360   1.045       .  S
C1365      C1366   1.413       .  A
C1365      C1370   1.407       .  A
C1366      C1367   1.405       .  A
C1366      N1371   1.438       .  S
C1367      H1372   1.084       .  S
C1367      C1368   1.402       .  A
C1368      C1373   1.481       .  S
C1368      C1369   1.410       .  A
C1369      C1370   1.403       .  A
C1369      N1374   1.439       .  S
C1370      H1375   1.083       .  S
N1371      H1391   1.045       .  S
N1371      H1392   1.046       .  S
C1373      C1376   1.403       .  A
C1373      C1380   1.412       .  A
N1374      H1389   1.045       .  S
N1374      H1390   1.046       .  S
C1376      H1381   1.084       .  S
C1376      C1377   1.398       .  A
C1377      C1378   1.412       .  A
C1377      N1382   1.433       .  S
C1378      C1379   1.402       .  A
C1379      H1383   1.084       .  S
C1379      C1380   1.403       .  A
C1380      N1384   1.438       .  S
N1382      H1385   1.045       .  S
N1382      H1386   1.045       .  S
N1384      H1387   1.046       .  S
N1384      H1388   1.046       .  S
C1393      C1394   1.412       .  A
C1393      C1398   1.403       .  A
C1394      C1395   1.401       .  A
C1394      N1399   1.433       .  S
C1395      H1400   1.084       .  S
C1395      C1396   1.402       .  A
C1396      C1401   1.482       .  S
C1396      C1397   1.413       .  A
C1397      C1398   1.402       .  A
C1397      N1402   1.439       .  S
C1398      H1403   1.084       .  S
C1401      C1404   1.404       .  A
C1401      C1408   1.411       .  A
N1402      H1417   1.046       .  S
N1402      H1418   1.046       .  S
C1404      H1409   1.084       .  S
C1404      C1405   1.399       .  A
C1405      C1406   1.415       .  A
C1405      N1410   1.438       .  S
C1406      C1407   1.402       .  A
C1407      H1411   1.084       .  S
C1407      C1408   1.401       .  A
C1408      N1412   1.439       .  S
N1410      H1413   1.046       .  S
N1410      H1414   1.042       .  S
N1412      H1415   1.046       .  S
N1412      H1416   1.046       .  S
C1421      C1422   1.419       .  A
C1421      C3210   1.406   1_455  A
C1422      C3207   1.397       .  A
C1422      N1427   1.439       .  S
C1423      H1428   1.084       .  S
C1423      C3206   1.398       .  A
C1423      C1424   1.401       .  A
C1424      C1429   1.477       .  S
C1424      C1425   1.406       .  A
C1425      C1426   1.401       .  A
C1425      N1430   1.432       .  S
C1426      H1431   1.084       .  S
C1426      C3205   1.403       .  A
N1427      H1447   1.043       .  S
N1427      H1448   1.046       .  S
C1429      C1432   1.400       .  A
C1429      C1436   1.408       .  A
N1430      H1445   1.046       .  S
N1430      H1446   1.045       .  S
C1432      H1437   1.084       .  S
C1432      C1433   1.405       .  A
C1433      C1434   1.416       .  A
C1433      N1438   1.438       .  S
C1434      C1435   1.402       .  A
C1435      H1439   1.084       .  S
C1435      C1436   1.399       .  A
C1436      N3224   1.433       .  S
N1438      H1441   1.046       .  S
N1438      H1442   1.046       .  S
N1440      C3220   1.439       .  S
N1440      H1443   1.046       .  S
N1440      H1444   1.043       .  S
C1449      C1450   1.405       .  A
C1449      C1454   1.401       .  A
C1450      C1451   1.401       .  A
C1450      N1455   1.432       .  S
C1451      H1456   1.083       .  S
C1451      C1452   1.405       .  A
C1452      C1457   1.482       .  S
C1452      C1453   1.410       .  A
C1453      C1454   1.401       .  A
C1453      N1458   1.433       .  S
C1454      H1459   1.084       .  S
N1455      H1475   1.044       .  S
N1455      H1476   1.047       .  S
C1457      C1460   1.406       .  A
C1457      C1464   1.409       .  A
N1458      H1473   1.046       .  S
N1458      H1474   1.045       .  S
C1460      H1465   1.084       .  S
C1460      C1461   1.400       .  A
C1461      C1462   1.403       .  A
C1461      N1466   1.433       .  S
C1462      C1463   1.401       .  A
C1463      H1467   1.084       .  S
C1463      C1464   1.402       .  A
C1464      N1468   1.432       .  S
N1466      H1469   1.045       .  S
N1466      H1470   1.046       .  S
N1468      H1471   1.045       .  S
N1468      H1472   1.046       .  S
C1477      C3262   1.406       .  A
C1477      C1482   1.403       .  A
C1478      C3261   1.405       .  A
C1478      C1479   1.404       .  A
C1478      N1483   1.431       .  S
C1479      H1484   1.084       .  S
C1479      C1480   1.405       .  A
C1480      C1485   1.480       .  S
C1480      C1481   1.414       .  A
C1481      C3266   1.394       .  A
C1481      N3270   1.433       .  S
C1482      H1487   1.084       .  S
C1482      C3265   1.394       .  A
N1483      H1503   1.045       .  S
N1483      H1504   1.046       .  S
C1485      C1488   1.399       .  A
C1485      C1492   1.407       .  A
N1486      C3265   1.433       .  S
N1486      H1501   1.047       .  S
N1486      H3286   1.043       .  S
C1488      H1493   1.084       .  S
C1488      C1489   1.406       .  A
C1489      C1490   1.419       .  A
C1489      N1494   1.438       .  S
C1490      C1491   1.405       .  A
C1491      H1495   1.084       .  S
C1491      C1492   1.402       .  A
C1492      N1496   1.433       .  S
N1494      H1497   1.048       .  S
N1494      H1498   1.044       .  S
N1496      H1499   1.045       .  S
N1496      H3284   1.046       .  S
H1500      N3280   1.045       .  S
H1502      N3270   1.045       .  S
C1505      C1510   1.404       .  A
C1506      C1507   1.398       .  A
C1506      N1511   1.433       .  S
C1507      H1512   1.084       .  S
C1507      C1508   1.405       .  A
C1508      C1513   1.487       .  S
C1508      C1509   1.413       .  A
C1509      N1514   1.437       .  S
C1510      H1515   1.084       .  S
N1511      H1532   1.044       .  S
C1513      C1516   1.401       .  A
C1513      C1520   1.410       .  A
N1514      H1529   1.046       .  S
N1514      H1530   1.045       .  S
C1516      C1517   1.403       .  A
C1517      C1518   1.419       .  A
C1517      N1522   1.439       .  S
C1518      C1519   1.408       .  A
C1519      H1523   1.083       .  S
C1519      C1520   1.408       .  A
C1520      N1524   1.437       .  S
N1522      H1526   1.046       .  S
N1524      H1527   1.046       .  S
N1524      H1528   1.045       .  S
C1533      C1534   1.410       .  A
C1533      C1538   1.402       .  A
C1534      C1535   1.408       .  A
C1534      N1539   1.437       .  S
C1535      H1540   1.083       .  S
C1535      C1536   1.407       .  A
C1536      C1541   1.491       .  S
C1536      C1537   1.415       .  A
C1537      C1538   1.400       .  A
C1537      N1542   1.439       .  S
C1538      H1543   1.084       .  S
N1539      H1559   1.046       .  S
N1539      H1560   1.046       .  S
C1541      C1544   1.406       .  A
C1541      C1548   1.415       .  A
N1542      H1557   1.046       .  S
N1542      H1558   1.045       .  S
C1544      H1549   1.083       .  S
C1544      C1545   1.403       .  A
C1545      C1546   1.408       .  A
C1545      N1550   1.438       .  S
C1546      C1547   1.402       .  A
C1547      H1551   1.084       .  S
C1547      C1548   1.406       .  A
C1548      N1552   1.438       .  S
N1550      H1553   1.046       .  S
N1550      H1554   1.044       .  S
N1552      H1555   1.046       .  S
N1552      H1556   1.046       .  S
C1561      C1562   1.411   1_545  A
C1562      C1563   1.391       .  A
C1562      N1567   1.433       .  S
C1563      H1568   1.084       .  S
C1564      C1569   1.483       .  S
C1564      C1565   1.413       .  A
C1565      C1566   1.406       .  A
C1565      N1570   1.437       .  S
C1566      H1571   1.084       .  S
N1567      H1587   1.045       .  S
N1567      H1588   1.045       .  S
C1569      C1572   1.402       .  A
C1569      C1576   1.409       .  A
N1570      H1585   1.046       .  S
N1570      H1586   1.046       .  S
C1572      H1577   1.084       .  S
C1572      C1573   1.403       .  A
C1573      C1574   1.416       .  A
C1573      N1578   1.438       .  S
C1574      C1575   1.409       .  A
C1575      H1579   1.083       .  S
C1575      C1576   1.406       .  A
C1576      N1580   1.438       .  S
N1578      H1581   1.046       .  S
N1578      H1582   1.045       .  S
N1580      H1583   1.046       .  S
N1580      H1584   1.045       .  S
C1589      C1590   1.414       .  A
C1589      C1594   1.408       .  A
C1590      C1591   1.411       .  A
C1590      N1595   1.437       .  S
C1591      H1596   1.084       .  S
C1591      C1592   1.405       .  A
C1592      C1597   1.488       .  S
C1592      C1593   1.410       .  A
C1593      C1594   1.405       .  A
C1593      N1598   1.439       .  S
C1594      H1599   1.083       .  S
N1595      H1615   1.045       .  S
N1595      H1616   1.046       .  S
C1597      C1600   1.403       .  A
C1597      C1604   1.416       .  A
N1598      H1613   1.046       .  S
N1598      H1614   1.046       .  S
C1600      H1605   1.084       .  S
C1600      C1601   1.400       .  A
C1601      C1602   1.406       .  A
C1601      N1606   1.432       .  S
C1602      C1603   1.404       .  A
C1603      H1607   1.083       .  S
C1603      C1604   1.412       .  A
C1604      N1608   1.438       .  S
N1606      H1609   1.045       .  S
N1606      H1610   1.046       .  S
N1608      H1611   1.046       .  S
N1608      H1612   1.043       .  S
C1617      C1618   1.416       .  A
C1617      C1622   1.403       .  A
C1618      C1619   1.400       .  A
C1618      N1623   1.433       .  S
C1619      H1624   1.084       .  S
C1619      C1620   1.401       .  A
C1620      C1625   1.485       .  S
C1620      C1621   1.412       .  A
C1621      C1622   1.403       .  A
C1622      H1627   1.084       .  S
N1623      H1643   1.046       .  S
N1623      H1644   1.045       .  S
C1625      C1628   1.405       .  A
C1625      C1632   1.419       .  A
N1626      H1641   1.046       .  S
N1626      H1642   1.046       .  S
C1628      H1633   1.084       .  S
C1628      C1629   1.393       .  A
C1629      N1634   1.433       .  S
C1630      C1631   1.401       .  A
C1631      H1635   1.084   1_545  S
C1632      N1636   1.438       .  S
N1634      H1637   1.044       .  S
N1636      H1640   1.046       .  S
C1645      C1646   1.412       .  A
C1645      C1650   1.400       .  A
C1646      C1647   1.399       .  A
C1646      N1651   1.432       .  S
C1647      H1652   1.084       .  S
C1647      C1648   1.405       .  A
C1648      C1653   1.482       .  S
C1648      C1649   1.409       .  A
C1649      C1650   1.400       .  A
C1649      N1654   1.432       .  S
C1650      H1655   1.084       .  S
N1651      H1671   1.045       .  S
N1651      H1672   1.045       .  S
C1653      C1656   1.405       .  A
C1653      C1660   1.407       .  A
N1654      H1669   1.044       .  S
N1654      H1670   1.047       .  S
C1656      H1661   1.084       .  S
C1656      C1657   1.410       .  A
C1657      C1658   1.412       .  A
C1657      N1662   1.437       .  S
C1658      C1659   1.404       .  A
C1659      H1663   1.084       .  S
C1659      C1660   1.397       .  A
C1660      N1664   1.433       .  S
N1662      H1665   1.044       .  S
N1662      H1666   1.048       .  S
N1664      H1667   1.046       .  S
N1664      H1668   1.046       .  S
C1673      C3458   1.407       .  A
C1673      C1678   1.404       .  A
C1674      C3457   1.406       .  A
C1674      C1675   1.402       .  A
C1674      N1679   1.432       .  S
C1675      H1680   1.084       .  S
C1675      C1676   1.404       .  A
C1676      C1681   1.486       .  S
C1676      C3461   1.413       .  A
C1677      C3460   1.412       .  A
C1677      C1678   1.406       .  A
C1677      N1682   1.432       .  S
C1678      H1683   1.084   1_655  S
N1679      H1699   1.046       .  S
N1679      H1700   1.045       .  S
C1681      C1684   1.405       .  A
C1681      C1688   1.409       .  A
N1682      H1697   1.046       .  S
N1682      H1698   1.046   1_655  S
C1684      H1689   1.084       .  S
C1684      C1685   1.407       .  A
C1685      C1686   1.410       .  A
C1685      N1690   1.432       .  S
C1686      C1687   1.405       .  A
C1687      H1691   1.084       .  S
C1687      C1688   1.400       .  A
C1688      N3476   1.433       .  S
N1690      H1693   1.045       .  S
N1690      H1694   1.046       .  S
N1692      C3472   1.433   1_455  S
N1692      H1695   1.045       .  S
N1692      H1696   1.046       .  S
C1701      C1702   1.410       .  A
C1701      C1706   1.403       .  A
C1702      C1703   1.406       .  A
C1702      N1707   1.438       .  S
C1703      H1708   1.084       .  S
C1703      C1704   1.404       .  A
C1704      C1709   1.493       .  S
C1704      C1705   1.414       .  A
C1705      C1706   1.411       .  A
C1705      N1710   1.437       .  S
C1706      H1711   1.083       .  S
N1707      H1727   1.045       .  S
N1707      H1728   1.046       .  S
C1709      C1712   1.405       .  A
C1709      C1716   1.412       .  A
N1710      H1725   1.046       .  S
N1710      H1726   1.045       .  S
C1712      H1717   1.084       .  S
C1712      C1713   1.408       .  A
C1713      C1714   1.414       .  A
C1713      N1718   1.438       .  S
C1714      C1715   1.405       .  A
C1715      H1719   1.084       .  S
C1715      C1716   1.409       .  A
C1716      N1720   1.437       .  S
N1718      H1721   1.046       .  S
N1718      H1722   1.046       .  S
N1720      H1723   1.046       .  S
N1720      H1724   1.045       .  S
C1729      C1730   1.416       .  A
C1729      C1734   1.404       .  A
C1730      C1731   1.407       .  A
C1730      N1735   1.438       .  S
C1731      H1736   1.084       .  S
C1731      C1732   1.401       .  A
C1732      C1737   1.483       .  S
C1732      C1733   1.408       .  A
C1733      C1734   1.402       .  A
C1733      N1738   1.433       .  S
C1734      H1739   1.084       .  S
N1735      H1755   1.046       .  S
N1735      H1756   1.045       .  S
C1737      C1740   1.402       .  A
C1737      C1744   1.412       .  A
N1738      H1753   1.046       .  S
N1738      H1754   1.045       .  S
C1740      H1745   1.084       .  S
C1740      C1741   1.397       .  A
C1741      C1742   1.413       .  A
C1741      N1746   1.433       .  S
C1742      C1743   1.402       .  A
C1743      H1747   1.083       .  S
C1743      C1744   1.408       .  A
C1744      N1748   1.437       .  S
N1746      H1749   1.045       .  S
N1746      H1750   1.045       .  S
N1748      H1751   1.046       .  S
N1748      H1752   1.045       .  S
C1757      C1758   1.414       .  A
C1757      C1762   1.407       .  A
C1758      C1759   1.399       .  A
C1758      N1763   1.433       .  S
C1759      H1764   1.084       .  S
C1759      C1760   1.402       .  A
C1760      C1765   1.488       .  S
C1760      C1761   1.412       .  A
C1761      C1762   1.410       .  A
C1761      N1766   1.437       .  S
C1762      H1767   1.084       .  S
N1763      H1783   1.046       .  S
N1763      H1784   1.046       .  S
C1765      C3552   1.405       .  A
C1765      C1772   1.414       .  A
N1766      H1781   1.046       .  S
N1766      H1782   1.046       .  S
C1768      H1773   1.084   1_655  S
C1768      C3549   1.402       .  A
C1768      C1769   1.395   1_655  A
C1769      C1770   1.412   1_455  A
C1769      N1774   1.433       .  S
C1770      C3555   1.403       .  A
C1771      H1775   1.084       .  S
C1771      C3554   1.401       .  A
C1771      C1772   1.407       .  A
C1772      N1776   1.437       .  S
N1774      H1777   1.045       .  S
N1774      H1778   1.045       .  S
N1776      H1779   1.046       .  S
N1776      H1780   1.046       .  S
C1785      N1786   1.362       .  A
C1785      N1790   1.358       .  A
C1785      C2649   1.489       .  S
N1786      C1787   1.359       .  A
C1787      N1788   1.357       .  A
C1787      C1809   1.465       .  S
N1788      C1789   1.356       .  A
C1789      N1790   1.355       .  A
C1789      C1916   1.462       .  S
C1791      N1792   1.359       .  A
C1791      N1796   1.358       .  A
C1791      C2621   1.477       .  S
N1792      C1793   1.357       .  A
C1793      N1794   1.357       .  A
C1793      C1859   1.460       .  S
N1794      C1795   1.355       .  A
C1795      N1796   1.355       .  A
C1795      C1894   1.460       .  S
C1797      N1798   1.358       .  A
C1797      N1802   1.361       .  A
C1797      C2606   1.490       .  S
N1798      C1799   1.357       .  A
C1799      N1800   1.359       .  A
C1799      C1829   1.467       .  S
N1800      C1801   1.360       .  A
C1801      N1802   1.360       .  A
C1801      C1886   1.471       .  S
C1803      N1804   1.361       .  A
C1803      N1808   1.360       .  A
C1803      C2578   1.487       .  S
N1804      C1805   1.360       .  A
C1805      N1806   1.360       .  A
C1805      C1901   1.470       .  S
N1806      C1807   1.359       .  A
C1807      N1808   1.356       .  A
N1810      N1827   1.322       .  A
N1810      N1832   1.321       .  A
N1810     Co1847   2.081       .  S
C1811      N2728   1.340       .  A
C1811      C2741   1.455       .  S
C1811      H1856   1.082       .  S
H1812      C1853   1.082       .  S
C1813      N1837   1.340       .  A
C1813      C2709   1.457       .  S
C1813      H1842   1.082       .  S
Co1814     N1832   2.081       .  S
Co1814     N1822   2.085       .  S
Co1814     N1854   2.079       .  S
Co1814     N1830   2.086       .  S
Co1814    Cl1858   2.470       .  S
N1815      C2745   1.335       .  A
N1815      N1822   1.320       .  A
N1815     Co1816   2.078       .  S
Co1816     N1819   2.088       .  S
Co1816     N1836   2.085       .  S
Co1816     N1823   2.081       .  S
Co1816    Cl1858   2.429       .  S
C1817      N1855   1.348       .  A
C1817      C2705   1.460   1_545  S
N1818      N1825   1.320       .  A
N1818      N1848   1.324       .  A
N1818     Co1851   2.073       .  S
N1819      N1837   1.320       .  A
N1819      N2747   1.325       .  A
N1820      C1849   1.350       .  A
N1820      N1830   1.326       .  A
H1821      C1846   1.082       .  S
N1822      N1843   1.328       .  A
N1823      N1841   1.319       .  A
N1823      N1828   1.323       .  A
C1824      N1828   1.348       .  A
C1824      C1852   1.455       .  S
C1824      C2776   1.458       .  S
N1825      C1840   1.342       .  A
N1825     Co1847   2.093       .  S
C1826      N1854   1.339       .  A
C1826      C1829   1.457       .  S
C1826      H1860   1.082       .  S
C1829      N1850   1.350       .  A
N1830      N1836   1.320       .  A
N1831      C1857   1.337       .  A
N1831      N1833   1.320       .  A
N1831     Co1847   2.079       .  S
N1832      C1846   1.341       .  A
N1833      N1861   1.326       .  A
N1833     Co1851   2.083       .  S
H1834      C1857   1.082       .  S
H1835      C1852   1.082       .  S
N1836      C2703   1.340       .  A
N1837     Co1851   2.080       .  S
N1838      N1850   1.327       .  A
N1838      N1854   1.320       .  A
N1838     Co1847   2.093       .  S
C1839      N2735   1.348   1_545  A
C1839      C1853   1.454       .  S
C1839      C1872   1.459       .  S
N1841      C1852   1.339       .  A
N1841     Co1851   2.071       .  S
N1843      C2731   1.351       .  A
C1845      N1861   1.349       .  A
C1845      C1857   1.455       .  S
C1845      C1864   1.462       .  S
Co1847    Cl1858   2.432       .  S
C1849      C2703   1.457       .  S
C1849      C2770   1.465       .  S
Co1851    Cl1858   2.467       .  S
C1853      N2707   1.336       .  A
N1855      N2711   1.324   1_545  A
C1862      N1863   1.362       .  A
C1862      N1867   1.363       .  A
C1862      C2550   1.487       .  S
N1863      C1864   1.358       .  A
C1864      N1865   1.353       .  A
N1865      C1866   1.353       .  A
C1866      N1867   1.357       .  A
C1866      C1936   1.462       .  S
C1868      N1869   1.356       .  A
C1868      N1873   1.362       .  A
C1868      C2509   1.465       .  S
N1869      C1870   1.352       .  A
C1870      N1871   1.353       .  A
C1870      C1926   1.457       .  S
C1874      N1875   1.361       .  A
C1874      N1879   1.355       .  A
C1874      C2481   1.474       .  S
N1875      C1876   1.360       .  A
C1876      N1877   1.358       .  A
C1876      C1906   1.464       .  S
N1877      C1878   1.355       .  A
C1878      N1879   1.352       .  A
C1878      C2741   1.458       .  S
C1880      N1881   1.358       .  A
C1880      N1885   1.356       .  A
C1880      C2466   1.475       .  S
N1881      C1882   1.357       .  A
C1882      N1883   1.357       .  A
C1882      C1922   1.462       .  S
N1883      C1884   1.357       .  A
C1884      N1885   1.354       .  A
C1884      C2716   1.458       .  S
C1886      N1904   1.350       .  A
C1886      C1923   1.460       .  S
N1887      N1904   1.326       .  A
N1887      N1909   1.320       .  A
N1887     Co1924   2.091       .  S
C1888      N1913   1.336       .  A
C1888      C1926   1.450       .  S
C1888      H1933   1.082       .  S
H1889      C1930   1.082       .  S
C1890      N1914   1.339       .  A
C1890      C1894   1.455       .  S
C1890      H1919   1.082       .  S
Co1891     N1909   2.086       .  S
Co1891     N1899   2.086       .  S
Co1891     N1931   2.088       .  S
Co1891     N1907   2.087       .  S
Co1891    Cl1935   2.470       .  S
N1892      C1930   1.340       .  A
N1892      N1899   1.321       .  A
N1892     Co1893   2.083       .  S
Co1893     N1896   2.081       .  S
Co1893     N1913   2.070       .  S
Co1893     N1900   2.091       .  S
Co1893    Cl1935   2.432       .  S
C1894      N1932   1.348       .  A
N1895      N1902   1.321       .  A
N1895      N1925   1.326       .  A
N1895     Co1928   2.085       .  S
N1896      N1914   1.319       .  A
N1896      N1932   1.324       .  A
N1897      C1926   1.350       .  A
N1897      N1907   1.325       .  A
H1898      C1923   1.082       .  S
N1899      N1920   1.325       .  A
N1900      N1918   1.320       .  A
N1900      N1905   1.326       .  A
C1901      N1905   1.350       .  A
C1901      C1929   1.461       .  S
N1902      C1917   1.337       .  A
N1902     Co1924   2.078       .  S
C1903      N1931   1.344       .  A
C1903      C1906   1.461       .  S
C1903      H1937   1.082       .  S
C1906      N1927   1.347       .  A
N1907      N1913   1.321       .  A
N1908      C1934   1.340       .  A
N1908      N1910   1.321       .  A
N1908     Co1924   2.085       .  S
N1909      C1923   1.342       .  A
N1910      N1938   1.324       .  A
N1910     Co1928   2.076       .  S
H1911      C1934   1.082       .  S
H1912      C1929   1.082       .  S
N1914     Co1928   2.075       .  S
N1915      N1927   1.322       .  A
N1915      N1931   1.320       .  A
N1915     Co1924   2.081       .  S
C1916      N1920   1.349       .  A
C1916      C1930   1.455       .  S
C1917      C1936   1.455       .  S
C1917      H1921   1.082       .  S
N1918      C1929   1.343       .  A
N1918     Co1928   2.087       .  S
C1922      N1938   1.348       .  A
C1922      C1934   1.456       .  S
Co1924    Cl1935   2.431       .  S
N1925      C1936   1.349       .  A
Co1928    Cl1935   2.469       .  S
N1939      C1944   1.354       .  A
N1939      C1943   1.356       .  A
N1939      H1971   1.040       .  S
N1940      C1947   1.349       .  A
N1940      C1948   1.350       .  A
N1941      C1946   1.350       .  A
N1941      C1945   1.349       .  A
N1941      H1972   1.041       .  S
N1942      C1949   1.347       .  A
N1942      C1950   1.351       .  A
C1943      C1951   1.386       .  A
C1943      C1959   1.420       .  A
C1944      C1960   1.423       .  A
C1944      C1952   1.390       .  A
C1945      C1953   1.389       .  A
C1945      C1962   1.411       .  A
C1946      C1961   1.409       .  A
C1946      C1954   1.385       .  A
C1947      C1959   1.412       .  A
C1947      C2847   1.387       .  A
C1948      C1962   1.409       .  A
C1948      C2848   1.385       .  A
C1949      C1957   1.388       .  A
C1949      C1960   1.411       .  A
C1950      C1958   1.383       .  A
C1950      C1961   1.407       .  A
C1951      H1963   1.082       .  S
C1951      C1952   1.374       .  A
C1952      H1964   1.082       .  S
C1953      H1965   1.083       .  S
C1953      C1954   1.373       .  A
C1954      H1966   1.082       .  S
C1955      H1967   1.082       .  S
C1955      C2839   1.386       .  A
C1955      C1956   1.374       .  A
C1956      H1968   1.082       .  S
C1956      C2840   1.385       .  A
C1957      H1969   1.082       .  S
C1957      C1958   1.375       .  A
C1958      H1970   1.082       .  S
C1959      C2397   1.492       .  S
C1960      C2438   1.481       .  S
C1961      C2593   1.485       .  S
C1962      C2522   1.481       .  S
N1973      C1978   1.356       .  A
N1973      C1977   1.356       .  A
N1973      H2005   1.033       .  S
N1974      C1981   1.349       .  A
N1974      C1982   1.351       .  A
N1975      C1980   1.350       .  A
N1975      C1979   1.351       .  A
N1975      H2006   1.034   1_556  S
N1976      C1983   1.348       .  A
N1976      C1984   1.350       .  A
C1977      C1985   1.387       .  A
C1977      C1993   1.421       .  A
C1978      C1994   1.420       .  A
C1978      C1986   1.387       .  A
C1979      C1987   1.388       .  A
C1979      C1996   1.410       .  A
C1980      C1995   1.410       .  A
C1980      C1988   1.387       .  A
C1981      C1993   1.413       .  A
C1981      C1989   1.388       .  A
C1982      C1996   1.409   1_554  A
C1982      C1990   1.384       .  A
C1983      C1994   1.411       .  A
C1984      C1995   1.408   1_554  A
C1985      H1997   1.082       .  S
C1985      C1986   1.375       .  A
C1986      H1998   1.082       .  S
C1987      H1999   1.082       .  S
C1987      C1988   1.371       .  A
C1988      H2000   1.083       .  S
C1989      H2001   1.082       .  S
C1989      C1990   1.376       .  A
C1990      H2002   1.082   1_554  S
C1991      H2003   1.082       .  S
C1991      C1992   1.378       .  A
C1992      H2004   1.082   1_554  S
C1993      C2537   1.492       .  S
C1994      C2565   1.488       .  S
C1995      C2369   1.480       .  S
C1996      C2341   1.483       .  S
N2007      C2012   1.352       .  A
N2007      C2011   1.354       .  A
N2007      H2039   1.034       .  S
N2008      C2015   1.347       .  A
N2008      C2016   1.347       .  A
N2009      C2014   1.353       .  A
N2009      C2013   1.352       .  A
N2009      H2040   1.032       .  S
N2010      C2017   1.349       .  A
N2010      C2018   1.352       .  A
C2011      C2019   1.387       .  A
C2011      C2027   1.415       .  A
C2012      C2028   1.416       .  A
C2012      C2020   1.388       .  A
C2013      C2021   1.387       .  A
C2013      C2030   1.415       .  A
C2014      C2029   1.417       .  A
C2014      C2022   1.389       .  A
C2015      C2027   1.406       .  A
C2015      C2023   1.386       .  A
C2016      C2030   1.405       .  A
C2016      C2024   1.385       .  A
C2017      C2028   1.413       .  A
C2018      C2029   1.413       .  A
C2019      H2031   1.083       .  S
C2019      C2020   1.374       .  A
C2020      H2032   1.082       .  S
C2021      H2033   1.082       .  S
C2021      C2022   1.369       .  A
C2022      H2034   1.081       .  S
C2023      H2035   1.082       .  S
C2023      C2024   1.375       .  A
C2024      H2036   1.082       .  S
C2025      H2037   1.082       .  S
C2025      C2026   1.374       .  A
C2026      H2038   1.082       .  S
C2027      C2494   1.479       .  S
C2028      C2662   1.482       .  S
C2029      C2313   1.489       .  S
C2030      C2298   1.478       .  S
N2041      C2046   1.354       .  A
N2041      C2045   1.355       .  A
N2041      H2073   1.035       .  S
N2042      C2049   1.347   1_554  A
N2042      C2050   1.349       .  A
N2043      C2048   1.350       .  A
N2043      C2047   1.350       .  A
N2043      H2074   1.037       .  S
N2044      C2051   1.348   1_554  A
N2044      C2052   1.349       .  A
C2045      C2053   1.387       .  A
C2045      C2061   1.418       .  A
C2046      C2062   1.418       .  A
C2046      C2054   1.387       .  A
C2047      C2055   1.388       .  A
C2047      C2064   1.411       .  A
C2048      C2063   1.409       .  A
C2048      C2056   1.387       .  A
C2049      C2061   1.409       .  A
C2049      C2057   1.387   1_556  A
C2050      C2064   1.408       .  A
C2050      C2058   1.385       .  A
C2051      C2951   1.387   1_556  A
C2051      C2062   1.410       .  A
C2052      C2952   1.385       .  A
C2052      C2063   1.406       .  A
C2053      H2065   1.082       .  S
C2053      C2054   1.375       .  A
C2054      H2066   1.083       .  S
C2055      H2067   1.083       .  S
C2055      C2056   1.374       .  A
C2056      H2068   1.082       .  S
C2057      H2069   1.082   1_554  S
C2057      C2058   1.377       .  A
C2058      H2070   1.082       .  S
C2059      H2071   1.082   1_554  S
C2059      C2943   1.386   1_544  A
C2059      C2060   1.379       .  A
C2060      H2072   1.082       .  S
C2060      C2944   1.385   1_545  A
C2061      C2270   1.485       .  S
C2062      C2242   1.486       .  S
C2063      C2453   1.479       .  S
C2064      C2634   1.483       .  S
C2075      N2076   1.360       .  A
C2075      N2080   1.359       .  A
C2075      C2257   1.482       .  S
N2076      C2077   1.357       .  A
C2077      N2078   1.354       .  A
N2078      C2079   1.354       .  A
C2079      N2080   1.357       .  A
C2079      C2111   1.458       .  S
C2081      N2082   1.362       .  A
C2081      N2086   1.363       .  A
C2081      C2382   1.486       .  S
N2082      C2083   1.358       .  A
C2083      N2084   1.352       .  A
C2083      C2216   1.460       .  S
N2084      C2085   1.352       .  A
C2085      N2086   1.358       .  A
C2085      C2141   1.463       .  S
C2087      N2088   1.359       .  A
C2087      N2092   1.363       .  A
C2087      C2229   1.488       .  S
N2088      C2089   1.355       .  A
C2089      N2090   1.353       .  A
C2089      C2151   1.460       .  S
N2090      C2091   1.355       .  A
C2091      N2092   1.361       .  A
C2091      C2196   1.463       .  S
C2093      N2094   1.358       .  A
C2093      N2098   1.360       .  A
C2093      C2354   1.484       .  S
N2094      C2095   1.357       .  A
C2095      N2096   1.358       .  A
C2095      C2176   1.464       .  S
N2096      C2097   1.358       .  A
C2097      N2098   1.359       .  A
C2097      C2131   1.467       .  S
C2099      N2100   1.359       .  A
C2099      N2104   1.358       .  A
C2099      C2285   1.474       .  S
N2100      C2101   1.355       .  A
C2101      N2102   1.355       .  A
C2101      C2126   1.462       .  S
N2102      C2103   1.356       .  A
C2103      N2104   1.359       .  A
C2103      C2212   1.460       .  S
C2105      N2106   1.363       .  A
C2105      N2110   1.361       .  A
C2105      C2410   1.496       .  S
N2106      C2107   1.360       .  A
C2107      N2108   1.357       .  A
C2107      C2191   1.469       .  S
N2108      C2109   1.357       .  A
C2109      N2110   1.357       .  A
C2109      C2119   1.466       .  S
C2111      N2129   1.349       .  A
C2111      C2148   1.454       .  S
N2112      N2129   1.323       .  A
N2112      N2134   1.320       .  A
N2112     Co2149   2.084       .  S
C2113      N2138   1.341       .  A
C2113      C2151   1.458       .  S
C2113      H2158   1.082       .  S
H2114      C2155   1.082       .  S
C2115      N2139   1.342       .  A
C2115      C2119   1.460       .  S
C2115      H2144   1.082       .  S
Co2116     N2134   2.071       .  S
Co2116     N2124   2.077       .  S
Co2116     N2156   2.076       .  S
Co2116     N2132   2.073       .  S
Co2116    Cl2160   2.469       .  S
N2117      C2155   1.338       .  A
N2117      N2124   1.320       .  A
N2117     Co2118   2.085       .  S
Co2118     N2121   2.089       .  S
Co2118     N2138   2.087       .  S
Co2118     N2125   2.084       .  S
Co2118    Cl2160   2.430       .  S
C2119      N2157   1.348       .  A
N2120      N2127   1.321       .  A
N2120      N2150   1.328       .  A
N2120     Co2153   2.090       .  S
N2121      N2139   1.321       .  A
N2121      N2157   1.324       .  A
N2122      C2151   1.347       .  A
N2122      N2132   1.323       .  A
H2123      C2148   1.082       .  S
N2124      N2145   1.326       .  A
N2125      N2143   1.320       .  A
N2125      N2130   1.324       .  A
C2126      N2130   1.348       .  A
C2126      C2154   1.457       .  S
N2127      C2142   1.339       .  A
N2127     Co2149   2.087       .  S
C2128      N2156   1.340       .  A
C2128      C2131   1.457       .  S
C2128      H2162   1.082       .  S
C2131      N2152   1.350       .  A
N2132      N2138   1.320       .  A
N2133      C2159   1.335       .  A
N2133      N2135   1.320       .  A
N2133     Co2149   2.073       .  S
N2134      C2148   1.339       .  A
N2135      N2163   1.326       .  A
N2135     Co2153   2.085       .  S
H2136      C2159   1.082       .  S
H2137      C2154   1.082       .  S
N2139     Co2153   2.087       .  S
N2140      N2152   1.326       .  A
N2140      N2156   1.319       .  A
N2140     Co2149   2.090       .  S
C2141      N2145   1.348       .  A
C2141      C2155   1.457       .  S
C2142      C2161   1.456       .  S
C2142      H2146   1.082       .  S
N2143      C2154   1.341       .  A
N2143     Co2153   2.081       .  S
C2147      N2163   1.351       .  A
C2147      C2159   1.452       .  S
C2147      C2172   1.459       .  S
Co2149    Cl2160   2.427       .  S
N2150      C2161   1.352       .  A
Co2153    Cl2160   2.474       .  S
C2161      C2166   1.470       .  S
C2164      N2165   1.362       .  A
C2164      N2169   1.355       .  A
C2164      C2326   1.472       .  S
N2165      C2166   1.361       .  A
C2166      N2167   1.360       .  A
N2167      C2168   1.357       .  A
C2168      N2169   1.354       .  A
C2168      C2184   1.463       .  S
C2170      N2171   1.359       .  A
C2170      N2175   1.360       .  A
C2170      C2425   1.472       .  S
N2171      C2172   1.357       .  A
C2172      N2173   1.356       .  A
N2173      C2174   1.353       .  A
C2174      N2175   1.355       .  A
C2174      C2226   1.462       .  S
C2176      N2194   1.348       .  A
C2176      C2213   1.457       .  S
N2177      N2194   1.325       .  A
N2177      N2199   1.320       .  A
N2177     Co2214   2.083       .  S
C2178      N3095   1.337   1_645  A
C2178      C2216   1.455       .  S
C2178      H2223   1.082       .  S
H2179      C2220   1.082       .  S
C2180      N2204   1.342       .  A
C2180      H2209   1.082       .  S
Co2181     N2199   2.078       .  S
Co2181     N2189   2.088       .  S
Co2181     N2221   2.086       .  S
Co2181     N2197   2.079       .  S
Co2181    Cl2225   2.472       .  S
N2182      N2189   1.321       .  A
Co2183     N2203   2.078       .  S
Co2183     N2190   2.088       .  S
C2184      N2222   1.349       .  A
N2185      N2192   1.321       .  A
N2185      N2215   1.326       .  A
N2185     Co2218   2.086       .  S
N2186      N2204   1.319       .  A
N2187      N3089   1.327   1_545  A
H2188      C2213   1.082       .  S
N2189      N2210   1.325       .  A
N2190      N3087   1.325   1_455  A
C2191      N2195   1.351       .  A
N2192      C2207   1.338       .  A
N2192     Co2214   2.082       .  S
C2193      N3113   1.342   1_545  A
C2193      C2196   1.458       .  S
C2193      H2227   1.082       .  S
N2195      N3082   1.326   1_645  A
C2196      N2217   1.349       .  A
N2197      N3079   1.327       .  A
N2198      C3116   1.339       .  A
N2198      N2200   1.319       .  A
N2198     Co2214   2.080       .  S
N2199      C2213   1.340       .  A
N2200      N3120   1.324       .  A
N2200     Co2218   2.076       .  S
H2201      C2224   1.082       .  S
H2202      C2219   1.082       .  S
N2203      C3070   1.336   1_455  A
N2204     Co2218   2.080       .  S
N2205      N3109   1.322       .  A
N2205      N2221   1.321       .  A
N2205     Co2214   2.084       .  S
C2206      N2210   1.350       .  A
C2207      C2226   1.455       .  S
C2207      H2211   1.082       .  S
N2208      C3111   1.340       .  A
N2208     Co2218   2.084       .  S
C2212      N2228   1.346       .  A
C2212      C2224   1.457       .  S
Co2214    Cl2225   2.428       .  S
N2215      C2226   1.350       .  A
N2217      N3097   1.323   1_545  A
Co2218    Cl2225   2.469       .  S
C2219      N3100   1.341   1_545  A
N2221      C3085   1.344       .  A
C2224      N3090   1.340   1_545  A
N2228      N3092   1.323   1_545  A
C2229      C2230   1.419       .  A
C2229      C2234   1.406       .  A
C2230      C2231   1.406       .  A
C2230      N2235   1.439       .  S
C2231      H2236   1.084       .  S
C2231      C2232   1.401       .  A
C2232      C2237   1.488       .  S
C2232      C2233   1.408       .  A
C2233      C2234   1.407       .  A
C2233      N2238   1.432       .  S
C2234      H2239   1.084       .  S
N2235      H2255   1.046       .  S
N2235      H2256   1.046       .  S
C2237      C2240   1.405       .  A
C2237      C3136   1.410       .  A
N2238      H2253   1.046       .  S
N2238      H3146   1.045       .  S
C2240      H2245   1.084       .  S
C2240      C2241   1.404       .  A
C2241      C3134   1.414       .  A
C2241      N2246   1.432       .  S
C2242      C3133   1.413       .  A
C2242      C2243   1.401       .  A
C2243      H2247   1.084       .  S
C2243      C2244   1.399       .  A
C2244      C3129   1.410       .  A
C2244      N2248   1.432       .  S
N2246      H2249   1.045       .  S
N2246      H2250   1.045       .  S
N2248      H2251   1.046       .  S
N2248      H2252   1.045       .  S
H2254      N3130   1.046       .  S
C2257      C2258   1.411       .  A
C2257      C2262   1.405       .  A
C2258      C2259   1.405       .  A
C2258      N2263   1.432       .  S
C2259      H2264   1.084       .  S
C2259      C2260   1.404       .  A
C2260      C2265   1.485       .  S
C2260      C2261   1.412       .  A
C2261      C2262   1.402       .  A
C2261      N2266   1.439       .  S
C2262      H2267   1.083       .  S
N2263      H2283   1.045       .  S
N2263      H2284   1.046       .  S
C2265      C2268   1.404       .  A
C2265      C2272   1.413       .  A
N2266      H2281   1.046       .  S
N2266      H2282   1.046       .  S
C2268      H2273   1.084       .  S
C2268      C2269   1.398       .  A
C2269      C2270   1.411       .  A
C2269      N2274   1.432       .  S
C2270      C2271   1.402       .  A
C2271      H2275   1.084       .  S
C2271      C2272   1.406       .  A
C2272      N2276   1.438       .  S
N2274      H2277   1.045       .  S
N2274      H2278   1.045       .  S
N2276      H2279   1.046       .  S
N2276      H2280   1.045       .  S
C2285      C2286   1.412       .  A
C2285      C2290   1.403       .  A
C2286      C2287   1.402       .  A
C2286      N2291   1.438       .  S
C2287      H2292   1.084       .  S
C2287      C2288   1.399       .  A
C2288      C2293   1.478       .  S
C2288      C2289   1.412       .  A
C2289      C2290   1.406       .  A
C2289      N2294   1.439       .  S
C2290      H2295   1.084       .  S
N2291      H3203   1.045       .  S
N2291      H3204   1.046       .  S
C2293      C2296   1.402       .  A
C2293      C2300   1.410       .  A
N2294      H2309   1.045       .  S
N2294      H2310   1.046       .  S
C2296      H2301   1.084       .  S
C2296      C2297   1.399       .  A
C2297      C2298   1.414       .  A
C2297      N2302   1.438       .  S
C2298      C2299   1.401       .  A
C2299      H2303   1.084       .  S
C2299      C2300   1.400       .  A
C2300      N2304   1.438       .  S
N2302      H2305   1.046       .  S
N2302      H2306   1.043       .  S
N2304      H2307   1.046       .  S
N2304      H2308   1.046       .  S
H2311      N3183   1.046       .  S
H2312      N3183   1.046       .  S
C2313      C2314   1.416       .  A
C2314      N2319   1.439       .  S
C2315      H2320   1.084       .  S
C2315      C2316   1.405   1_455  A
C2316      C2321   1.487       .  S
C2316      C2317   1.413       .  A
C2317      C2318   1.404       .  A
C2317      N2322   1.438       .  S
C2318      H2323   1.084       .  S
N2319      H2339   1.043       .  S
N2319      H2340   1.045       .  S
C2321      C2324   1.405       .  A
C2321      C2328   1.415   1_655  A
N2322      H2337   1.046       .  S
N2322      H2338   1.045       .  S
C2324      H2329   1.084       .  S
C2324      C2325   1.404       .  A
C2325      C2326   1.407       .  A
C2325      N2330   1.432       .  S
C2326      C2327   1.400       .  A
C2327      H2331   1.084   1_655  S
C2327      C2328   1.404   1_655  A
N2330      H2333   1.046       .  S
N2330      H2334   1.046       .  S
N2332      H2335   1.045       .  S
N2332      H2336   1.046       .  S
C2341      C2342   1.405       .  A
C2341      C2346   1.402       .  A
C2342      C2343   1.405       .  A
C2342      N2347   1.432       .  S
C2343      H2348   1.084       .  S
C2343      C2344   1.406       .  A
C2344      C2349   1.485       .  S
C2344      C2345   1.410       .  A
C2345      C2346   1.400       .  A
C2345      N2350   1.433       .  S
C2346      H2351   1.084       .  S
N2347      H2367   1.045       .  S
N2347      H2368   1.046       .  S
C2349      C2352   1.404       .  A
C2349      C2356   1.407       .  A
N2350      H2365   1.046       .  S
N2350      H2366   1.045       .  S
C2352      H2357   1.084       .  S
C2352      C2353   1.407       .  A
C2353      C2354   1.414       .  A
C2353      N2358   1.438       .  S
C2354      C2355   1.407       .  A
C2355      H2359   1.084       .  S
C2355      C2356   1.403       .  A
C2356      N2360   1.433       .  S
N2358      H2361   1.045       .  S
N2358      H2362   1.046       .  S
N2360      H2363   1.045       .  S
N2360      H2364   1.046       .  S
C2369      C2374   1.402       .  A
C2370      C2371   1.405   1_455  A
C2370      N2375   1.438       .  S
C2371      H2376   1.084       .  S
C2371      C2372   1.407       .  A
C2372      C2377   1.485       .  S
C2372      C2373   1.419       .  A
C2374      H2379   1.084       .  S
N2375      H2395   1.043       .  S
N2375      H2396   1.046   1_455  S
C2377      C2380   1.401       .  A
C2377      C2384   1.412   1_655  A
N2378      H2393   1.046       .  S
C2380      H2385   1.084       .  S
C2380      C2381   1.403       .  A
C2381      C2382   1.416       .  A
C2381      N2386   1.438       .  S
C2382      C2383   1.407       .  A
C2383      H2387   1.084   1_655  S
C2383      C2384   1.407   1_655  A
C2384      N2388   1.439       .  S
N2386      H2389   1.046       .  S
N2386      H2390   1.045       .  S
N2388      H2391   1.046       .  S
C2397      C3290   1.412       .  A
C2397      C2402   1.402       .  A
C2398      C3289   1.413       .  A
C2398      C2399   1.398       .  A
C2398      N2403   1.433       .  S
C2399      H2404   1.084       .  S
C2399      C2400   1.406       .  A
C2400      C2405   1.490       .  S
C2400      C2401   1.413       .  A
C2401      C3294   1.407       .  A
C2401      N2406   1.437       .  S
C2402      H2407   1.084       .  S
C2402      C3293   1.407       .  A
N2403      H3315   1.045       .  S
N2403      H2424   1.044       .  S
C2405      C2408   1.403       .  A
C2405      C2412   1.410       .  A
N2406      H2421   1.046       .  S
N2406      H2422   1.045       .  S
C2408      H3305   1.084       .  S
C2408      C2409   1.404       .  A
C2409      C2410   1.416       .  A
C2409      N2414   1.432       .  S
C2410      C2411   1.410       .  A
C2411      H2415   1.083       .  S
C2411      C2412   1.408       .  A
C2412      N2416   1.438       .  S
H2413      C3300   1.083       .  S
N2414      H3309   1.046       .  S
N2414      H2418   1.046   1_545  S
N2416      H2419   1.046       .  S
N2416      H2420   1.046       .  S
H2417      N3306   1.046       .  S
H2423      N3295   1.046       .  S
C2425      C2426   1.410       .  A
C2425      C2430   1.401       .  A
C2426      C2427   1.408       .  A
C2426      N2431   1.437       .  S
C2427      H2432   1.084       .  S
C2427      C2428   1.405       .  A
C2428      C2433   1.480       .  S
C2428      C2429   1.410       .  A
C2429      C2430   1.398       .  A
C2429      N2434   1.439       .  S
C2430      H2435   1.084       .  S
N2431      H2451   1.045       .  S
N2431      H2452   1.046       .  S
C2433      C2436   1.404       .  A
C2433      C2440   1.411       .  A
N2434      H2449   1.045       .  S
N2434      H2450   1.046       .  S
C2436      H2441   1.084       .  S
C2436      C2437   1.402       .  A
C2437      C2438   1.408       .  A
C2437      N2442   1.438       .  S
C2438      C2439   1.402       .  A
C2439      H2443   1.084       .  S
C2439      C2440   1.404       .  A
C2440      N2444   1.438       .  S
N2442      H2445   1.045       .  S
N2442      H2446   1.044       .  S
N2444      H2447   1.046       .  S
N2444      H2448   1.046       .  S
C2453      C2454   1.411       .  A
C2453      C3350   1.401       .  A
C2454      C2455   1.394       .  A
C2454      N2459   1.433       .  S
C2455      H2460   1.084       .  S
C2455      C3348   1.402       .  A
C2456      C2461   1.479       .  S
C2456      C3347   1.401   1_545  A
C2456      C2457   1.412       .  A
C2457      C2458   1.406       .  A
C2457      N2462   1.437       .  S
C2458      H2463   1.084       .  S
C2458      C3345   1.401       .  A
N2459      H2479   1.046       .  S
N2459      H2480   1.045       .  S
C2461      C2464   1.404       .  A
C2461      C2468   1.409       .  A
N2462      H2477   1.046       .  S
N2462      H2478   1.045       .  S
C2464      H2469   1.084       .  S
C2464      C2465   1.404       .  A
C2465      C2466   1.410       .  A
C2465      N2470   1.438       .  S
C2466      C2467   1.405       .  A
C2467      H2471   1.084       .  S
C2467      C2468   1.402       .  A
C2468      N2472   1.438       .  S
N2470      H2473   1.045       .  S
N2470      H2474   1.046       .  S
N2472      H2475   1.046       .  S
N2472      H2476   1.045       .  S
C2481      C2482   1.410       .  A
C2481      C2486   1.405       .  A
C2482      C2483   1.407       .  A
C2482      N2487   1.437       .  S
C2483      H2488   1.084       .  S
C2483      C2484   1.404       .  A
C2484      C2489   1.475       .  S
C2484      C2485   1.406       .  A
C2485      C2486   1.396       .  A
C2485      N2490   1.433       .  S
C2486      H2491   1.084       .  S
N2487      H2507   1.046       .  S
N2487      H2508   1.046       .  S
C2489      C2492   1.402       .  A
C2489      C2496   1.408       .  A
N2490      H2505   1.046       .  S
N2490      H2506   1.045       .  S
C2492      H2497   1.084       .  S
C2492      C2493   1.398       .  A
C2493      C2494   1.405       .  A
C2493      N2498   1.432       .  S
C2494      C2495   1.403       .  A
C2495      H2499   1.084       .  S
C2495      C2496   1.403       .  A
C2496      N2500   1.432       .  S
N2498      H2501   1.046       .  S
N2498      H2502   1.045       .  S
N2500      H2503   1.045       .  S
N2500      H2504   1.046       .  S
C2509      C2510   1.406       .  A
C2509      C2514   1.398       .  A
C2510      C2511   1.403       .  A
C2510      N2515   1.432       .  S
C2511      H2516   1.084       .  S
C2511      C2512   1.405       .  A
C2512      C2517   1.483       .  S
C2512      C2513   1.415       .  A
C2513      C2514   1.400       .  A
C2513      N3410   1.439       .  S
C2514      H2519   1.084       .  S
N2515      H2535   1.046       .  S
N2515      H2536   1.045       .  S
C2517      C2520   1.405       .  A
C2517      C2524   1.413       .  A
N2518      C3405   1.439       .  S
N2518      H2533   1.045       .  S
N2518      H2534   1.045       .  S
C2520      H2525   1.084       .  S
C2520      C2521   1.395       .  A
C2521      C3414   1.408       .  A
C2521      N2526   1.433       .  S
C2522      C3413   1.413       .  A
C2522      C2523   1.403       .  A
C2523      H2527   1.084       .  S
C2523      C3416   1.408       .  A
C2524      C3415   1.404       .  A
C2524      N2528   1.438   1_545  S
N2526      H2529   1.045       .  S
N2526      H3422   1.045       .  S
N2528      H3423   1.046       .  S
N2528      H2532   1.045       .  S
H2530      N3418   1.045       .  S
H2531      N3420   1.046       .  S
C2537      C2538   1.413       .  A
C2537      C2542   1.403       .  A
C2538      C2539   1.407       .  A
C2538      N2543   1.437       .  S
C2539      H2544   1.084       .  S
C2539      C2540   1.404       .  A
C2540      C2545   1.486       .  S
C2540      C2541   1.409       .  A
C2541      C2542   1.402       .  A
C2541      N2546   1.432       .  S
C2542      H2547   1.084       .  S
N2543      H2563   1.046       .  S
N2543      H2564   1.045       .  S
C2545      C2548   1.404       .  A
C2545      C2552   1.408       .  A
N2546      H2561   1.046       .  S
N2546      H2562   1.045       .  S
C2548      H2553   1.084       .  S
C2548      C2549   1.410       .  A
C2549      C2550   1.416       .  A
C2549      N2554   1.438       .  S
C2550      C2551   1.405       .  A
C2551      H2555   1.083       .  S
C2551      C2552   1.399       .  A
C2552      N2556   1.433       .  S
N2554      H2557   1.043       .  S
N2554      H2558   1.048       .  S
N2556      H2559   1.046       .  S
N2556      H2560   1.045       .  S
C2565      C2570   1.403       .  A
C2566      C2567   1.406       .  A
C2566      N2571   1.437       .  S
C2567      H2572   1.084       .  S
C2567      C2568   1.403       .  A
C2568      C2573   1.485       .  S
C2569      C2570   1.407       .  A
C2569      N2574   1.437       .  S
C2570      H2575   1.084       .  S
N2571      H2591   1.046       .  S
N2571      H2592   1.045       .  S
C2573      C2576   1.405       .  A
C2573      C2580   1.407       .  A
N2574      H2589   1.045       .  S
N2574      H2590   1.046       .  S
C2576      H2581   1.084       .  S
C2576      C2577   1.408       .  A
C2577      C2578   1.412       .  A
C2577      N2582   1.432       .  S
C2578      C2579   1.406       .  A
C2579      H2583   1.084       .  S
C2579      C2580   1.401       .  A
N2582      H2585   1.046       .  S
N2582      H2586   1.045       .  S
N2584      H2587   1.045       .  S
N2584      H2588   1.046       .  S
C2593      C2594   1.409       .  A
C2593      C2598   1.400       .  A
C2594      C2595   1.404       .  A
C2594      N2599   1.438       .  S
C2595      H2600   1.083       .  S
C2595      C2596   1.405       .  A
C2596      C2601   1.493       .  S
C2596      C2597   1.416       .  A
C2597      C2598   1.407       .  A
C2597      N2602   1.437       .  S
C2598      H2603   1.084       .  S
N2599      H2619   1.046       .  S
N2599      H2620   1.046       .  S
C2601      C2604   1.405       .  A
C2601      C2608   1.412       .  A
N2602      H2617   1.046       .  S
N2602      H2618   1.045       .  S
C2604      H2609   1.083       .  S
C2604      C2605   1.405       .  A
C2605      C2606   1.414       .  A
C2605      N2610   1.438       .  S
C2606      C2607   1.409       .  A
C2607      H2611   1.083       .  S
C2607      C2608   1.407       .  A
C2608      N2612   1.438       .  S
N2610      H2613   1.046       .  S
N2610      H2614   1.045       .  S
N2612      H2615   1.046       .  S
N2612      H2616   1.045       .  S
C2621      C2622   1.415       .  A
C2621      C2626   1.403       .  A
C2622      C2623   1.404       .  A
C2622      N2627   1.438       .  S
C2623      H2628   1.084       .  S
C2623      C2624   1.399       .  A
C2624      C2629   1.473       .  S
C2624      C2625   1.411       .  A
C2625      C2626   1.403       .  A
C2625      N2630   1.439       .  S
C2626      H2631   1.084       .  S
N2627      H2647   1.046       .  S
N2627      H2648   1.045       .  S
C2629      C2632   1.399       .  A
C2629      C2636   1.410       .  A
N2630      H2645   1.046       .  S
N2630      H2646   1.044       .  S
C2632      H2637   1.084       .  S
C2632      C2633   1.392       .  A
C2633      C2634   1.414       .  A
C2633      N2638   1.434       .  S
C2634      C2635   1.404       .  A
C2635      H2639   1.083       .  S
C2635      C2636   1.408       .  A
C2636      N2640   1.438       .  S
N2638      H2641   1.044       .  S
N2638      H2642   1.045       .  S
N2640      H2643   1.045       .  S
N2640      H2644   1.044       .  S
C2649      C2650   1.415       .  A
C2649      C2654   1.406       .  A
C2650      C2651   1.400       .  A
C2650      N2655   1.433       .  S
C2651      H2656   1.083       .  S
C2651      C2652   1.403       .  A
C2652      C2657   1.492       .  S
C2652      C2653   1.413       .  A
C2653      C2654   1.408       .  A
C2653      N2658   1.437       .  S
C2654      H2659   1.083       .  S
N2655      H2675   1.045       .  S
N2655      H2676   1.046       .  S
C2657      C2664   1.415       .  A
N2658      H2673   1.046       .  S
N2658      H2674   1.045       .  S
C2660      H2665   1.084       .  S
C2660      C2661   1.397       .  A
C2661      C2662   1.411       .  A
C2661      N2666   1.433       .  S
C2663      H2667   1.084       .  S
C2663      C2664   1.407       .  A
C2664      N2668   1.437       .  S
N2666      H2669   1.045       .  S
N2666      H2670   1.046       .  S
N2668      H2671   1.046       .  S
N2668      H2672   1.045       .  S
C2677      N2678   1.362       .  A
C2677      N2682   1.357       .  A
C2677      C3541   1.486       .  S
N2678      C2679   1.360       .  A
C2679      N2680   1.357       .  A
C2679      C2701   1.464       .  S
N2680      C2681   1.356       .  A
C2681      N2682   1.353       .  A
C2681      C2808   1.460       .  S
C2683      N2684   1.359       .  A
C2683      N2688   1.359       .  A
C2683      C3513   1.473       .  S
N2684      C2685   1.357       .  A
C2685      N2686   1.357       .  A
C2685      C2751   1.466       .  S
N2686      C2687   1.358       .  A
C2687      N2688   1.357       .  A
C2687      C2786   1.464       .  S
C2689      N2690   1.356       .  A
C2689      N2694   1.359       .  A
C2689      C3498   1.477       .  S
N2690      C2691   1.356       .  A
C2691      N2692   1.360       .  A
C2691      C2721   1.465       .  S
N2692      C2693   1.361       .  A
C2693      N2694   1.359       .  A
C2693      C2778   1.468       .  S
C2695      N2696   1.362       .  A
C2695      N2700   1.359       .  A
C2695      C3470   1.491       .  S
N2696      C2697   1.360       .  A
C2697      N2698   1.358       .  A
C2697      C2793   1.466       .  S
N2698      C2699   1.357       .  A
C2699      N2700   1.356       .  A
N2702      N2719   1.324       .  A
N2702      N2724   1.320       .  A
N2702     Co2739   2.087       .  S
C2703      H2748   1.082       .  S
H2704      C2745   1.082       .  S
C2705      N2729   1.342       .  A
C2705      H2734   1.082       .  S
Co2706     N2724   2.078       .  S
Co2706     N2714   2.079       .  S
Co2706     N2746   2.079       .  S
Co2706     N2722   2.078       .  S
Co2706    Cl2750   2.465       .  S
N2707      N2714   1.320   1_545  A
N2707     Co2708   2.077       .  S
Co2708     N2711   2.083   1_545  S
Co2708     N2728   2.077       .  S
Co2708     N2715   2.078   1_545  S
Co2708    Cl2750   2.432   1_545  S
C2709      N2747   1.349       .  A
N2710      N2717   1.321       .  A
N2710      N2740   1.325       .  A
N2710     Co2743   2.084       .  S
N2711      N2729   1.320       .  A
N2712      C2741   1.348   1_565  A
N2712      N2722   1.323       .  A
H2713      C2738   1.082       .  S
N2714      N2735   1.326       .  A
N2715      N2733   1.320       .  A
N2715      N2720   1.324   1_565  A
C2716      N2720   1.346       .  A
C2716      C2744   1.456   1_545  S
N2717      C2732   1.338       .  A
N2717     Co2739   2.080       .  S
C2718      N2746   1.339       .  A
C2718      C2721   1.458       .  S
C2718      H2752   1.082       .  S
C2721      N2742   1.349       .  A
N2722      N2728   1.319   1_565  A
N2723      C2749   1.336       .  A
N2723      N2725   1.321       .  A
N2723     Co2739   2.080       .  S
N2724      C2738   1.341       .  A
N2725      N2753   1.327       .  A
N2725     Co2743   2.083       .  S
H2726      C2749   1.082       .  S
H2727      C2744   1.082       .  S
N2729     Co2743   2.086       .  S
N2730      N2742   1.326       .  A
N2730      N2746   1.320       .  A
N2730     Co2739   2.086       .  S
C2731      C2745   1.454       .  S
C2731      C2764   1.464       .  S
N2733      C2744   1.339       .  A
N2733     Co2743   2.078       .  S
C2737      N2753   1.349       .  A
C2737      C2749   1.455       .  S
C2737      C2756   1.462       .  S
Co2739    Cl2750   2.430       .  S
Co2743    Cl2750   2.467       .  S
C2754      N2755   1.363       .  A
C2754      N2759   1.358       .  A
C2754      C3442   1.478       .  S
N2755      C2756   1.361       .  A
C2756      N2757   1.354       .  A
N2757      C2758   1.351       .  A
C2758      N2759   1.352       .  A
C2758      C2828   1.455       .  S
C2760      N2761   1.360       .  A
C2760      N2765   1.362       .  A
C2760      C3401   1.473       .  S
N2761      C2762   1.356       .  A
C2762      N2763   1.353       .  A
C2762      C2818   1.460       .  S
C2766      N2767   1.363       .  A
C2766      N2771   1.361       .  A
C2766      C3373   1.490       .  S
N2767      C2768   1.360       .  A
C2768      N2769   1.356       .  A
C2768      C2798   1.467       .  S
N2769      C2770   1.356       .  A
C2770      N2771   1.357       .  A
C2772      N2773   1.358       .  A
C2772      N2777   1.358       .  A
C2772      C3358   1.475       .  S
N2773      C2774   1.356       .  A
C2774      N2775   1.355       .  A
C2774      C2814   1.460       .  S
N2775      C2776   1.356       .  A
C2776      N2777   1.357       .  A
C2778      N2796   1.349       .  A
C2778      C2815   1.459       .  S
N2779      N2796   1.326       .  A
N2779      N2801   1.320       .  A
N2779     Co2816   2.089       .  S
C2780      N2805   1.336       .  A
C2780      C2818   1.452       .  S
C2780      H2825   1.082       .  S
H2781      C2822   1.082       .  S
C2782      N2806   1.343       .  A
C2782      C2786   1.461       .  S
C2782      H2811   1.082       .  S
Co2783     N2801   2.083       .  S
Co2783     N2791   2.084       .  S
Co2783     N2823   2.086       .  S
Co2783     N2799   2.084       .  S
Co2783    Cl2827   2.469       .  S
N2784      C2822   1.339       .  A
N2784      N2791   1.320       .  A
N2784     Co2785   2.077       .  S
Co2785     N2788   2.078       .  S
Co2785     N2805   2.075       .  S
Co2785     N2792   2.087       .  S
Co2785    Cl2827   2.429       .  S
C2786      N2824   1.346       .  A
N2787      N2794   1.321       .  A
N2787      N2817   1.323       .  A
N2787     Co2820   2.075       .  S
N2788      N2806   1.319       .  A
N2788      N2824   1.323       .  A
N2789      C2818   1.350       .  A
N2789      N2799   1.326       .  A
H2790      C2815   1.082       .  S
N2791      N2812   1.324       .  A
N2792      N2810   1.320       .  A
N2792      N2797   1.324       .  A
C2793      N2797   1.349       .  A
C2793      C2821   1.459       .  S
N2794      C2809   1.338       .  A
N2794     Co2816   2.080       .  S
C2795      N2823   1.343       .  A
C2795      C2798   1.459       .  S
C2795      H2829   1.082       .  S
C2798      N2819   1.350       .  A
N2799      N2805   1.321       .  A
N2800      C2826   1.340       .  A
N2800      N2802   1.321       .  A
N2800     Co2816   2.084       .  S
N2801      C2815   1.341       .  A
N2802      N2830   1.324       .  A
N2802     Co2820   2.080       .  S
H2803      C2826   1.082       .  S
H2804      C2821   1.082       .  S
N2806     Co2820   2.083       .  S
N2807      N2819   1.325       .  A
N2807      N2823   1.321       .  A
N2807     Co2816   2.092       .  S
C2808      N2812   1.350       .  A
C2808      C2822   1.454       .  S
C2809      C2828   1.454       .  S
C2809      H2813   1.082       .  S
N2810      C2821   1.342       .  A
N2810     Co2820   2.081       .  S
C2814      N2830   1.347       .  A
C2814      C2826   1.456       .  S
Co2816    Cl2827   2.432       .  S
N2817      C2828   1.347       .  A
Co2820    Cl2827   2.468       .  S
N2831      C2836   1.353       .  A
N2831      C2835   1.355       .  A
N2831      H2863   1.034       .  S
N2832      C2839   1.349   1_565  A
N2832      C2840   1.348   1_565  A
N2833      C2838   1.354       .  A
N2833      C2837   1.353       .  A
N2833      H2864   1.031       .  S
N2834      C2841   1.350       .  A
N2834      C2842   1.351       .  A
C2835      C2843   1.385       .  A
C2835      C2851   1.417   1_565  A
C2836      C2852   1.418       .  A
C2836      C2844   1.389       .  A
C2837      C2845   1.389       .  A
C2837      C2854   1.419   1_565  A
C2838      C2853   1.417       .  A
C2838      C2846   1.388       .  A
C2839      C2851   1.411       .  A
C2840      C2854   1.408       .  A
C2841      C2849   1.387       .  A
C2841      C2852   1.414       .  A
C2842      C2850   1.385       .  A
C2842      C2853   1.412       .  A
C2843      H2855   1.082       .  S
C2843      C2844   1.372       .  A
C2844      H2856   1.081       .  S
C2845      H2857   1.082       .  S
C2845      C2846   1.370       .  A
C2846      H2858   1.082       .  S
C2847      H2859   1.082       .  S
C2847      C2848   1.377       .  A
C2848      H2860   1.082       .  S
C2849      H2861   1.082       .  S
C2849      C2850   1.376       .  A
C2850      H2862   1.082       .  S
C2851      C3289   1.490       .  S
C2852      C3330   1.484       .  S
C2853      C3485   1.485       .  S
C2854      C3414   1.479       .  S
N2865      C2870   1.356       .  A
N2865      C2869   1.354       .  A
N2865      H2897   1.029       .  S
N2866      C2873   1.348       .  A
N2866      C2874   1.352       .  A
N2867      C2872   1.349       .  A
N2867      C2871   1.352       .  A
N2867      H2898   1.029   1_556  S
N2868      C2875   1.348       .  A
N2868      C2876   1.349       .  A
C2869      C2877   1.388       .  A
C2869      C2885   1.418       .  A
C2870      C2886   1.417       .  A
C2870      C2878   1.386       .  A
C2871      C2879   1.387       .  A
C2871      C2888   1.410       .  A
C2872      C2887   1.410       .  A
C2872      C2880   1.387       .  A
C2873      C2885   1.413       .  A
C2873      C2881   1.387       .  A
C2874      C2888   1.411   1_554  A
C2874      C2882   1.384       .  A
C2875      C2886   1.408       .  A
C2876      C2887   1.408   1_554  A
C2877      H2889   1.082       .  S
C2877      C2878   1.375       .  A
C2878      H2890   1.082       .  S
C2879      H2891   1.082       .  S
C2879      C2880   1.375       .  A
C2880      H2892   1.083       .  S
C2881      H2893   1.082       .  S
C2881      C2882   1.378       .  A
C2882      H2894   1.082   1_554  S
C2883      H2895   1.082       .  S
C2883      C2884   1.375       .  A
C2884      H2896   1.082   1_554  S
C2885      C3429   1.485       .  S
C2886      C3457   1.487       .  S
C2887      C3261   1.480       .  S
C2888      C3233   1.486       .  S
N2899      C2904   1.354       .  A
N2899      C2903   1.353       .  A
N2899      H2931   1.036       .  S
N2900      C2907   1.352       .  A
N2900      C2908   1.352       .  A
N2901      C2906   1.353       .  A
N2901      C2905   1.352       .  A
N2901      H2932   1.036       .  S
N2902      C2909   1.349       .  A
N2902      C2910   1.349       .  A
C2903      C2911   1.387       .  A
C2903      C2919   1.418       .  A
C2904      C2920   1.416       .  A
C2904      C2912   1.387       .  A
C2905      C2913   1.388       .  A
C2905      C2922   1.416       .  A
C2906      C2921   1.415       .  A
C2906      C2914   1.388       .  A
C2907      C2919   1.416       .  A
C2907      C2915   1.387       .  A
C2908      C2922   1.412       .  A
C2908      C2916   1.385       .  A
C2909      C2920   1.409       .  A
C2910      C2921   1.408       .  A
C2911      H2923   1.082       .  S
C2911      C2912   1.375       .  A
C2912      H2924   1.082       .  S
C2913      H2925   1.083       .  S
C2913      C2914   1.372       .  A
C2914      H2926   1.083       .  S
C2915      H2927   1.082       .  S
C2915      C2916   1.377       .  A
C2916      H2928   1.082       .  S
C2917      H2929   1.082       .  S
C2917      C2918   1.378       .  A
C2918      H2930   1.082       .  S
C2919      C3386   1.493       .  S
C2920      C3554   1.484       .  S
C2921      C3205   1.483       .  S
C2922      C3190   1.487       .  S
N2933      C2938   1.356       .  A
N2933      C2937   1.353       .  A
N2933      H2965   1.037       .  S
N2934      C2941   1.345   1_554  A
N2934      C2942   1.349       .  A
N2935      C2940   1.347       .  A
N2935      C2939   1.350       .  A
N2935      H2966   1.038       .  S
N2936      C2943   1.349   1_554  A
N2936      C2944   1.349       .  A
C2937      C2945   1.388       .  A
C2937      C2953   1.419       .  A
C2938      C2954   1.418       .  A
C2938      C2946   1.386       .  A
C2939      C2947   1.386       .  A
C2939      C2956   1.408       .  A
C2940      C2955   1.408       .  A
C2940      C2948   1.388       .  A
C2941      C2953   1.407       .  A
C2941      C2949   1.388   1_556  A
C2942      C2956   1.404       .  A
C2942      C2950   1.384       .  A
C2943      C2954   1.411       .  A
C2944      C2955   1.408       .  A
C2945      H2957   1.083       .  S
C2945      C2946   1.376       .  A
C2946      H2958   1.082       .  S
C2947      H2959   1.083       .  S
C2947      C2948   1.373       .  A
C2948      H2960   1.082       .  S
C2949      H2961   1.082   1_554  S
C2949      C2950   1.377       .  A
C2950      H2962   1.082       .  S
C2951      H2963   1.082   1_554  S
C2951      C2952   1.377       .  A
C2952      H2964   1.082       .  S
C2953      C3162   1.480       .  S
C2954      C3134   1.492   1_565  S
C2955      C3345   1.476   1_565  S
C2956      C3526   1.481       .  S
C2967      N2968   1.359       .  A
C2967      N2972   1.358       .  A
C2967      C3149   1.476       .  S
N2968      C2969   1.356       .  A
C2969      N2970   1.356       .  A
N2970      C2971   1.356       .  A
C2971      N2972   1.357       .  A
C2971      C3003   1.460       .  S
C2973      N2974   1.362       .  A
C2973      N2978   1.361       .  A
C2973      C3274   1.477       .  S
N2974      C2975   1.358       .  A
C2975      N2976   1.353       .  A
C2975      C3108   1.463       .  S
N2976      C2977   1.353       .  A
C2977      N2978   1.356       .  A
C2977      C3033   1.460       .  S
C2979      N2980   1.360       .  A
C2979      N2984   1.363       .  A
C2979      C3121   1.489       .  S
N2980      C2981   1.356       .  A
C2981      N2982   1.354       .  A
C2981      C3043   1.462       .  S
N2982      C2983   1.356       .  A
C2983      N2984   1.359       .  A
C2983      C3088   1.463       .  S
C2985      N2986   1.363       .  A
C2985      N2990   1.356       .  A
C2985      C3246   1.487       .  S
N2986      C2987   1.363       .  A
C2987      N2988   1.360       .  A
C2987      C3068   1.471       .  S
N2988      C2989   1.357       .  A
C2989      N2990   1.354       .  A
C2989      C3023   1.465       .  S
C2991      N2992   1.360       .  A
C2991      N2996   1.360       .  A
C2991      C3177   1.480       .  S
N2992      C2993   1.357       .  A
C2993      N2994   1.355       .  A
C2993      C3018   1.462       .  S
N2994      C2995   1.356       .  A
C2995      N2996   1.358       .  A
C2995      C3104   1.462       .  S
C2997      N2998   1.360       .  A
C2997      N3002   1.359       .  A
C2997      C3302   1.492       .  S
N2998      C2999   1.357       .  A
C2999      N3000   1.358       .  A
C2999      C3083   1.468       .  S
N3000      C3001   1.358       .  A
C3001      N3002   1.357       .  A
C3001      C3011   1.462       .  S
C3003      N3021   1.348       .  A
C3003      C3040   1.457       .  S
N3004      N3021   1.323       .  A
N3004      N3026   1.321       .  A
N3004     Co3041   2.083       .  S
C3005      N3030   1.340       .  A
C3005      C3043   1.457       .  S
C3005      H3050   1.082       .  S
H3006      C3047   1.082       .  S
C3007      N3031   1.339       .  A
C3007      C3011   1.457       .  S
C3007      H3036   1.082       .  S
Co3008     N3026   2.081       .  S
Co3008     N3016   2.080       .  S
Co3008     N3048   2.080       .  S
Co3008     N3024   2.083       .  S
Co3008    Cl3052   2.468       .  S
N3009      C3047   1.336       .  A
N3009      N3016   1.319       .  A
N3009     Co3010   2.075       .  S
Co3010     N3013   2.089       .  S
Co3010     N3030   2.087       .  S
Co3010     N3017   2.082       .  S
Co3010    Cl3052   2.429       .  S
C3011      N3049   1.349       .  A
N3012      N3019   1.319       .  A
N3012      N3042   1.325       .  A
N3012     Co3045   2.080       .  S
N3013      N3031   1.320       .  A
N3013      N3049   1.325       .  A
N3014      C3043   1.349       .  A
N3014      N3024   1.325       .  A
H3015      C3040   1.082       .  S
N3016      N3037   1.326       .  A
N3017      N3035   1.319       .  A
N3017      N3022   1.324       .  A
C3018      N3022   1.348       .  A
C3018      C3046   1.456       .  S
N3019      C3034   1.341       .  A
N3019     Co3041   2.083       .  S
C3020      N3048   1.340       .  A
C3020      C3023   1.458       .  S
C3020      H3054   1.082       .  S
C3023      N3044   1.348       .  A
N3024      N3030   1.321       .  A
N3025      C3051   1.335       .  A
N3025      N3027   1.321       .  A
N3025     Co3041   2.079       .  S
N3026      C3040   1.340       .  A
N3027      N3055   1.326       .  A
N3027     Co3045   2.079       .  S
H3028      C3051   1.082       .  S
H3029      C3046   1.082       .  S
N3031     Co3045   2.077       .  S
N3032      N3044   1.325       .  A
N3032      N3048   1.320       .  A
N3032     Co3041   2.083       .  S
C3033      N3037   1.350       .  A
C3033      C3047   1.453       .  S
C3034      C3053   1.457       .  S
C3034      H3038   1.082       .  S
N3035      C3046   1.341       .  A
N3035     Co3045   2.078       .  S
C3039      N3055   1.349       .  A
C3039      C3051   1.454       .  S
C3039      C3064   1.458       .  S
Co3041    Cl3052   2.429       .  S
N3042      C3053   1.349       .  A
Co3045    Cl3052   2.469       .  S
C3053      C3058   1.465       .  S
C3056      N3057   1.360       .  A
C3056      N3061   1.360       .  A
C3056      C3218   1.482       .  S
N3057      C3058   1.358       .  A
C3058      N3059   1.357       .  A
N3059      C3060   1.357       .  A
C3060      N3061   1.358       .  A
C3060      C3076   1.464       .  S
C3062      N3063   1.361       .  A
C3062      N3067   1.361       .  A
C3062      C3317   1.476       .  S
N3063      C3064   1.359       .  A
C3064      N3065   1.353       .  A
N3065      C3066   1.350       .  A
C3066      N3067   1.356       .  A
C3066      C3118   1.459       .  S
C3068      N3086   1.350       .  A
C3068      C3105   1.459       .  S
N3069      N3086   1.326       .  A
N3069      N3091   1.320       .  A
N3069     Co3106   2.091       .  S
C3070      C3108   1.453       .  S
C3070      H3115   1.082       .  S
H3071      C3112   1.082       .  S
C3072      N3096   1.340       .  A
C3072      H3101   1.082       .  S
Co3073     N3091   2.084       .  S
Co3073     N3081   2.084       .  S
Co3073     N3113   2.081       .  S
Co3073     N3089   2.084       .  S
Co3073    Cl3117   2.473       .  S
N3074      N3081   1.321       .  A
Co3075     N3095   2.082       .  S
Co3075     N3082   2.092       .  S
C3076      N3114   1.348       .  A
N3077      N3084   1.322       .  A
N3077      N3107   1.324       .  A
N3077     Co3110   2.077       .  S
N3078      N3096   1.318       .  A
H3080      C3105   1.082       .  S
N3081      N3102   1.325       .  A
C3083      N3087   1.349       .  A
N3084      C3099   1.339       .  A
N3084     Co3106   2.088       .  S
C3085      C3088   1.460       .  S
C3085      H3119   1.082       .  S
C3088      N3109   1.347       .  A
N3090      N3092   1.320       .  A
N3090     Co3106   2.085       .  S
N3091      C3105   1.343       .  A
N3092     Co3110   2.068       .  S
H3093      C3116   1.082       .  S
H3094      C3111   1.082       .  S
N3096     Co3110   2.073       .  S
N3097      N3113   1.321       .  A
N3097     Co3106   2.092       .  S
C3098      N3102   1.350       .  A
C3099      C3118   1.458       .  S
C3099      H3103   1.082       .  S
N3100     Co3110   2.083       .  S
C3104      N3120   1.348       .  A
C3104      C3116   1.456       .  S
Co3106    Cl3117   2.429       .  S
N3107      C3118   1.347       .  A
Co3110    Cl3117   2.467       .  S
C3121      C3122   1.417       .  A
C3121      C3126   1.407       .  A
C3122      C3123   1.401       .  A
C3122      N3127   1.433       .  S
C3123      H3128   1.084       .  S
C3123      C3124   1.401       .  A
C3124      C3129   1.486       .  S
C3124      C3125   1.409       .  A
C3125      C3126   1.405       .  A
C3125      N3130   1.432       .  S
C3126      H3131   1.084       .  S
N3127      H3147   1.046       .  S
N3127      H3148   1.046       .  S
C3129      C3132   1.407       .  A
N3130      H3145   1.045       .  S
C3132      H3137   1.084       .  S
C3132      C3133   1.401       .  A
C3133      N3138   1.433       .  S
C3134      C3135   1.403   1_545  A
C3135      H3139   1.084       .  S
C3135      C3136   1.404   1_565  A
C3136      N3140   1.432   1_545  S
N3138      H3141   1.044       .  S
N3138      H3142   1.046       .  S
N3140      H3143   1.046       .  S
N3140      H3144   1.045       .  S
C3149      C3150   1.413       .  A
C3149      C3154   1.404       .  A
C3150      C3151   1.408       .  A
C3150      N3155   1.437       .  S
C3151      H3156   1.084       .  S
C3151      C3152   1.402       .  A
C3152      C3157   1.475       .  S
C3152      C3153   1.405       .  A
C3153      C3154   1.397       .  A
C3153      N3158   1.433       .  S
C3154      H3159   1.084       .  S
N3155      H3175   1.046       .  S
N3155      H3176   1.046       .  S
C3157      C3160   1.404       .  A
C3157      C3164   1.418       .  A
N3158      H3173   1.045       .  S
N3158      H3174   1.046       .  S
C3160      H3165   1.084       .  S
C3160      C3161   1.397       .  A
C3161      C3162   1.411       .  A
C3161      N3166   1.433       .  S
C3162      C3163   1.400       .  A
C3163      H3167   1.084       .  S
C3163      C3164   1.397       .  A
C3164      N3168   1.439       .  S
N3166      H3169   1.044       .  S
N3166      H3170   1.045       .  S
N3168      H3171   1.046       .  S
N3168      H3172   1.042       .  S
C3177      C3178   1.411       .  A
C3177      C3182   1.403       .  A
C3178      C3179   1.403       .  A
C3178      N3183   1.432       .  S
C3179      H3184   1.084       .  S
C3179      C3180   1.403       .  A
C3180      C3185   1.488       .  S
C3180      C3181   1.414       .  A
C3181      C3182   1.405       .  A
C3181      N3186   1.438       .  S
C3182      H3187   1.084       .  S
C3185      C3188   1.406       .  A
C3185      C3192   1.413       .  A
N3186      H3201   1.045       .  S
N3186      H3202   1.046       .  S
C3188      H3193   1.084       .  S
C3188      C3189   1.400       .  A
C3189      C3190   1.411       .  A
C3189      N3194   1.432       .  S
C3190      C3191   1.402       .  A
C3191      H3195   1.084       .  S
C3191      C3192   1.405       .  A
C3192      N3196   1.438       .  S
N3194      H3197   1.045       .  S
N3194      H3198   1.045       .  S
N3196      H3199   1.046       .  S
N3196      H3200   1.046       .  S
C3205      C3206   1.417       .  A
C3206      N3211   1.439       .  S
C3207      H3212   1.084       .  S
C3207      C3208   1.399   1_455  A
C3208      C3213   1.480       .  S
C3208      C3209   1.411       .  A
C3209      C3210   1.410       .  A
C3209      N3214   1.438       .  S
C3210      H3215   1.083       .  S
N3211      H3231   1.043       .  S
N3211      H3232   1.046       .  S
C3213      C3216   1.401       .  A
C3213      C3220   1.413       .  A
N3214      H3229   1.046       .  S
N3214      H3230   1.043       .  S
C3216      H3221   1.084       .  S
C3216      C3217   1.404       .  A
C3217      C3218   1.412       .  A
C3217      N3222   1.432       .  S
C3218      C3219   1.404       .  A
C3219      H3223   1.084       .  S
C3219      C3220   1.406       .  A
N3222      H3225   1.045       .  S
N3222      H3226   1.046       .  S
N3224      H3227   1.046       .  S
N3224      H3228   1.046       .  S
C3233      C3234   1.407       .  A
C3233      C3238   1.402       .  A
C3234      C3235   1.408       .  A
C3234      N3239   1.431       .  S
C3235      H3240   1.084       .  S
C3235      C3236   1.407       .  A
C3236      C3241   1.485       .  S
C3236      C3237   1.408       .  A
C3237      C3238   1.401       .  A
C3237      N3242   1.432       .  S
C3238      H3243   1.084       .  S
N3239      H3259   1.047       .  S
N3239      H3260   1.044       .  S
C3241      C3244   1.400       .  A
C3241      C3248   1.409       .  A
N3242      H3257   1.046       .  S
N3242      H3258   1.045       .  S
C3244      H3249   1.084       .  S
C3244      C3245   1.402       .  A
C3245      C3246   1.415       .  A
C3245      N3250   1.433       .  S
C3246      C3247   1.406       .  A
C3247      H3251   1.084       .  S
C3247      C3248   1.407       .  A
C3248      N3252   1.432       .  S
N3250      H3253   1.044       .  S
N3250      H3254   1.047       .  S
N3252      H3255   1.047       .  S
N3252      H3256   1.044       .  S
C3261      C3266   1.402       .  A
C3262      C3263   1.404       .  A
C3262      N3267   1.432   1_655  S
C3263      H3268   1.084       .  S
C3263      C3264   1.404       .  A
C3264      C3269   1.476       .  S
C3264      C3265   1.412       .  A
C3266      H3271   1.084       .  S
N3267      H3287   1.045   1_455  S
N3267      H3288   1.046       .  S
C3269      C3272   1.401       .  A
C3269      C3276   1.407       .  A
N3270      H3285   1.045       .  S
C3272      H3277   1.084       .  S
C3272      C3273   1.403       .  A
C3273      C3274   1.413       .  A
C3273      N3278   1.433       .  S
C3274      C3275   1.402       .  A
C3275      H3279   1.084   1_655  S
C3275      C3276   1.400       .  A
C3276      N3280   1.433   1_655  S
N3278      H3281   1.045       .  S
N3278      H3282   1.046       .  S
N3280      H3283   1.046       .  S
C3289      C3294   1.403       .  A
C3290      C3291   1.401       .  A
C3290      N3295   1.433       .  S
C3291      H3296   1.083       .  S
C3291      C3292   1.408       .  A
C3292      C3297   1.496       .  S
C3292      C3293   1.416       .  A
C3293      N3298   1.438       .  S
C3294      H3299   1.084       .  S
N3295      H3316   1.044       .  S
C3297      C3300   1.403       .  A
C3297      C3304   1.414       .  A
N3298      H3313   1.046       .  S
N3298      H3314   1.045       .  S
C3300      C3301   1.400       .  A
C3301      C3302   1.414       .  A
C3301      N3306   1.433       .  S
C3302      C3303   1.409       .  A
C3303      H3307   1.083       .  S
C3303      C3304   1.411       .  A
C3304      N3308   1.438       .  S
N3306      H3310   1.045       .  S
N3308      H3311   1.046       .  S
N3308      H3312   1.045       .  S
C3317      C3318   1.410       .  A
C3317      C3322   1.402       .  A
C3318      C3319   1.409       .  A
C3318      N3323   1.437       .  S
C3319      H3324   1.083       .  S
C3319      C3320   1.406       .  A
C3320      C3325   1.487       .  S
C3320      C3321   1.413       .  A
C3321      C3322   1.400       .  A
C3321      N3326   1.439       .  S
C3322      H3327   1.084       .  S
N3323      H3343   1.046       .  S
N3323      H3344   1.046       .  S
C3325      C3328   1.404       .  A
C3325      C3332   1.414       .  A
N3326      H3341   1.046       .  S
N3326      H3342   1.046       .  S
C3328      H3333   1.084       .  S
C3328      C3329   1.402       .  A
C3329      C3330   1.408       .  A
C3329      N3334   1.438       .  S
C3330      C3331   1.403       .  A
C3331      H3335   1.084       .  S
C3331      C3332   1.407       .  A
C3332      N3336   1.438       .  S
N3334      H3337   1.046       .  S
N3334      H3338   1.045       .  S
N3336      H3339   1.046       .  S
N3336      H3340   1.046       .  S
C3345      C3346   1.412   1_545  A
C3346      C3347   1.392       .  A
C3346      N3351   1.433       .  S
C3347      H3352   1.084       .  S
C3348      C3353   1.480       .  S
C3348      C3349   1.413       .  A
C3349      C3350   1.406       .  A
C3349      N3354   1.437       .  S
C3350      H3355   1.084       .  S
N3351      H3371   1.045       .  S
N3351      H3372   1.045       .  S
C3353      C3356   1.403       .  A
C3353      C3360   1.411       .  A
N3354      H3369   1.046       .  S
N3354      H3370   1.046       .  S
C3356      H3361   1.084       .  S
C3356      C3357   1.399       .  A
C3357      C3358   1.408       .  A
C3357      N3362   1.433       .  S
C3358      C3359   1.405       .  A
C3359      H3363   1.084       .  S
C3359      C3360   1.406       .  A
C3360      N3364   1.438       .  S
N3362      H3365   1.045       .  S
N3362      H3366   1.046       .  S
N3364      H3367   1.045       .  S
N3364      H3368   1.046       .  S
C3373      C3374   1.413       .  A
C3373      C3378   1.408       .  A
C3374      C3375   1.407       .  A
C3374      N3379   1.432       .  S
C3375      H3380   1.084       .  S
C3375      C3376   1.404       .  A
C3376      C3381   1.488       .  S
C3376      C3377   1.408       .  A
C3377      C3378   1.403       .  A
C3377      N3382   1.433       .  S
C3378      H3383   1.083       .  S
N3379      H3399   1.046       .  S
N3379      H3400   1.046       .  S
C3381      C3384   1.403       .  A
C3381      C3388   1.414       .  A
N3382      H3397   1.046       .  S
N3382      H3398   1.045       .  S
C3384      H3389   1.084       .  S
C3384      C3385   1.401       .  A
C3385      C3386   1.409       .  A
C3385      N3390   1.433       .  S
C3386      C3387   1.404       .  A
C3387      H3391   1.083       .  S
C3387      C3388   1.411       .  A
C3388      N3392   1.437       .  S
N3390      H3393   1.046       .  S
N3390      H3394   1.045       .  S
N3392      H3395   1.045       .  S
N3392      H3396   1.046       .  S
C3401      C3402   1.410       .  A
C3401      C3406   1.400       .  A
C3402      C3403   1.404       .  A
C3402      N3407   1.432       .  S
C3403      H3408   1.084       .  S
C3403      C3404   1.400       .  A
C3404      C3409   1.475       .  S
C3404      C3405   1.412       .  A
C3405      C3406   1.405       .  A
C3406      H3411   1.084       .  S
N3407      H3427   1.045       .  S
N3407      H3428   1.046       .  S
C3409      C3412   1.399       .  A
C3409      C3416   1.411       .  A
N3410      H3425   1.046       .  S
N3410      H3426   1.045   1_545  S
C3412      H3417   1.084       .  S
C3412      C3413   1.394       .  A
C3413      N3418   1.434       .  S
C3414      C3415   1.401       .  A
C3415      H3419   1.084   1_545  S
C3416      N3420   1.438       .  S
N3418      H3421   1.045       .  S
N3420      H3424   1.045       .  S
C3429      C3430   1.408       .  A
C3429      C3434   1.403       .  A
C3430      C3431   1.403       .  A
C3430      N3435   1.432       .  S
C3431      H3436   1.084       .  S
C3431      C3432   1.403       .  A
C3432      C3437   1.477       .  S
C3432      C3433   1.408       .  A
C3433      C3434   1.401       .  A
C3433      N3438   1.433       .  S
C3434      H3439   1.084       .  S
N3435      H3455   1.045       .  S
N3435      H3456   1.046       .  S
C3437      C3440   1.404       .  A
C3437      C3444   1.405       .  A
N3438      H3453   1.046       .  S
N3438      H3454   1.045       .  S
C3440      H3445   1.084       .  S
C3440      C3441   1.409       .  A
C3441      C3442   1.411       .  A
C3441      N3446   1.437       .  S
C3442      C3443   1.405       .  A
C3443      H3447   1.084       .  S
C3443      C3444   1.396       .  A
C3444      N3448   1.433       .  S
N3446      H3449   1.045       .  S
N3446      H3450   1.046       .  S
N3448      H3451   1.046       .  S
N3448      H3452   1.046       .  S
C3457      C3462   1.403       .  A
C3458      C3459   1.401       .  A
C3458      N3463   1.432       .  S
C3459      H3464   1.084       .  S
C3459      C3460   1.405       .  A
C3460      C3465   1.489       .  S
C3461      C3462   1.407       .  A
C3461      N3466   1.437       .  S
C3462      H3467   1.084       .  S
N3463      H3483   1.046       .  S
N3463      H3484   1.045       .  S
C3465      C3468   1.406       .  A
C3465      C3472   1.408       .  A
N3466      H3481   1.044       .  S
N3466      H3482   1.047       .  S
C3468      H3473   1.084       .  S
C3468      C3469   1.410       .  A
C3469      C3470   1.415       .  A
C3469      N3474   1.438       .  S
C3470      C3471   1.407       .  A
C3471      H3475   1.083       .  S
C3471      C3472   1.400       .  A
N3474      H3477   1.047       .  S
N3474      H3478   1.044       .  S
N3476      H3479   1.046       .  S
N3476      H3480   1.045       .  S
C3485      C3486   1.408       .  A
C3485      C3490   1.401       .  A
C3486      C3487   1.405       .  A
C3486      N3491   1.437       .  S
C3487      H3492   1.083       .  S
C3487      C3488   1.406       .  A
C3488      C3493   1.490       .  S
C3488      C3489   1.414       .  A
C3489      C3490   1.405       .  A
C3489      N3494   1.438       .  S
C3490      H3495   1.084       .  S
N3491      H3511   1.046       .  S
N3491      H3512   1.046       .  S
C3493      C3496   1.407       .  A
C3493      C3500   1.412       .  A
N3494      H3509   1.046       .  S
N3494      H3510   1.045       .  S
C3496      H3501   1.083       .  S
C3496      C3497   1.405       .  A
C3497      C3498   1.409       .  A
C3497      N3502   1.438       .  S
C3498      C3499   1.404       .  A
C3499      H3503   1.084       .  S
C3499      C3500   1.406       .  A
C3500      N3504   1.438       .  S
N3502      H3505   1.045       .  S
N3502      H3506   1.046       .  S
N3504      H3507   1.046       .  S
N3504      H3508   1.045       .  S
C3513      C3514   1.413       .  A
C3513      C3518   1.400       .  A
C3514      C3515   1.406       .  A
C3514      N3519   1.438       .  S
C3515      H3520   1.084       .  S
C3515      C3516   1.401       .  A
C3516      C3521   1.473       .  S
C3516      C3517   1.410       .  A
C3517      C3518   1.402       .  A
C3517      N3522   1.439       .  S
C3518      H3523   1.084       .  S
N3519      H3539   1.045       .  S
N3519      H3540   1.046       .  S
C3521      C3524   1.399       .  A
C3521      C3528   1.411       .  A
N3522      H3537   1.046       .  S
N3522      H3538   1.044       .  S
C3524      H3529   1.084       .  S
C3524      C3525   1.393       .  A
C3525      C3526   1.413       .  A
C3525      N3530   1.433       .  S
C3526      C3527   1.403       .  A
C3527      H3531   1.084       .  S
C3527      C3528   1.407       .  A
C3528      N3532   1.438       .  S
N3530      H3533   1.045       .  S
N3530      H3534   1.045       .  S
N3532      H3535   1.046       .  S
N3532      H3536   1.044       .  S
C3541      C3542   1.416       .  A
C3541      C3546   1.406       .  A
C3542      C3543   1.399       .  A
C3542      N3547   1.433       .  S
C3543      H3548   1.084       .  S
C3543      C3544   1.400       .  A
C3544      C3549   1.484       .  S
C3544      C3545   1.411       .  A
C3545      C3546   1.408       .  A
C3545      N3550   1.437       .  S
C3546      H3551   1.083       .  S
N3547      H3567   1.046       .  S
N3547      H3568   1.045       .  S
C3549      C3556   1.413       .  A
N3550      H3565   1.046       .  S
N3550      H3566   1.045       .  S
C3552      H3557   1.084       .  S
C3552      C3553   1.397       .  A
C3553      C3554   1.410       .  A
C3553      N3558   1.433       .  S
C3555      H3559   1.084       .  S
C3555      C3556   1.408       .  A
C3556      N3560   1.437       .  S
N3558      H3561   1.045       .  S
N3558      H3562   1.046       .  S
N3560      H3563   1.046       .  S
N3560      H3564   1.046       .  S
