geometry optimzed in LAMMPS
_audit_creation_date              2020-12-01 
_audit_creation_method            'lammps2cif' 
_symmetry_space_group_name_H-M    'P1' 
_symmetry_Int_Tables_number       1 
_symmetry_cell_setting            triclinic 
loop_ 
_symmetry_equiv_pos_as_xyz 
  x,y,z 
_cell_length_a                    64.26470255 
_cell_length_b                    64.39977034106116 
_cell_length_c                    64.53957669844094 
_cell_angle_alpha                 89.92204848538465 
_cell_angle_beta                  89.93724758515255 
_cell_angle_gamma                 90.0407289692011 
loop_ 
_atom_site_label 
_atom_site_type_symbol 
_atom_site_fract_x 
_atom_site_fract_y 
_atom_site_fract_z 
_atom_site_charge 
O1          O  0.04594515  0.70243767  0.81905674    -0.57500
C2          C  0.07130749  0.66727885  0.86869554     0.75100
O3          O  0.01179186  0.64846875  0.84471677    -0.58700
C4          C  0.03502646  0.69827037  0.80322201     0.75100
C5          C  0.06663596  0.63693366  0.80859083     0.77500
Cd6        Cd  0.04406322  0.66665562  0.83353006     1.37500
O7          O  0.06993426  0.68309095  0.85700556    -0.57500
O8          O  0.07400670  0.65434255  0.81396847    -0.56300
C9          C  0.00425424  0.66397216  0.85424913     0.77400
O10         O  0.04830440  0.63288891  0.81477220    -0.58700
O11         O  0.06006171  0.65186812  0.86402806    -0.57200
O12         O  0.02892309  0.67966252  0.80146753    -0.57200
O13         O  0.01501569  0.68041541  0.85395037    -0.56300
O14         O  0.20508799  0.53652180  0.68274038    -0.57500
C15         C  0.16541126  0.56173853  0.63758390     0.75100
O16         O  0.15102284  0.49947595  0.66115461    -0.58700
C17         C  0.20548548  0.51934056  0.69240060     0.75100
C18         C  0.14491826  0.55075839  0.70436993     0.77500
Cd19       Cd  0.16875324  0.53226500  0.67094677     1.37500
O20         O  0.18223696  0.55970124  0.64761143    -0.57500
O21         O  0.16291997  0.55650034  0.69892295    -0.56300
C22         C  0.16539074  0.49395766  0.64875904     0.77400
O23         O  0.13724125  0.53561825  0.69435524    -0.58700
O24         O  0.15034749  0.55040566  0.64327168    -0.57200
O25         O  0.18897019  0.50864473  0.69216266    -0.57200
O26         O  0.18026961  0.50657198  0.64620560    -0.56300
O27         O  0.94966466  0.85265805  0.67958841    -0.57500
C28         C  0.98520210  0.80133631  0.69676367     0.75100
O29         O  0.97421800  0.80913441  0.63058280    -0.58700
C30         C  0.94921547  0.86562578  0.66478295     0.75100
C31         C  0.01728631  0.84779511  0.66043294     0.77500
Cd32       Cd  0.97638106  0.82979396  0.66333219     1.37500
O33         O  0.97942482  0.81979648  0.70041447    -0.57500
O34         O  0.00744625  0.84321876  0.64402628    -0.56300
C35         C  0.95543600  0.80372678  0.63354243     0.77400
O36         O  0.00838378  0.84355371  0.67734139    -0.58700
O37         O  0.98553815  0.79585074  0.67793524    -0.57200
O38         O  0.96129766  0.86200990  0.64975562    -0.57200
O39         O  0.94698866  0.81014203  0.65007753    -0.56300
O40         O  0.82641287  0.65066202  0.55992071    -0.57500
C41         C  0.80643752  0.69973672  0.52282760     0.75100
O42         O  0.87497318  0.69351075  0.53364235    -0.58700
C43         C  0.84322372  0.64109274  0.56368226     0.75100
C44         C  0.84208967  0.65023442  0.49476903     0.77500
Cd45       Cd  0.84125007  0.67353578  0.53279928     1.37500
O46         O  0.80694303  0.68991447  0.53987352    -0.57500
O47         O  0.82695163  0.64969162  0.50730331    -0.56300
C48         C  0.86937436  0.70454346  0.54895081     0.77400
O49         O  0.85754174  0.66136636  0.50000367    -0.58700
O50         O  0.82187416  0.69744424  0.51086778    -0.57200
O51         O  0.85889618  0.64644656  0.55306899    -0.57200
O52         O  0.85133836  0.70111681  0.55598740    -0.56300
O53         O  0.36029454  0.43840317  0.81768192    -0.57500
C54         C  0.30877377  0.47295832  0.79798399     0.75100
O55         O  0.31376267  0.46094237  0.86630793    -0.58700
C56         C  0.36889924  0.43371707  0.83472588     0.75100
C57         C  0.35664767  0.50099094  0.83594679     0.77500
Cd58       Cd  0.33432423  0.46241577  0.83317926     1.37500
O59         O  0.31692805  0.45507566  0.79940307    -0.57500
O60         O  0.35794237  0.48890820  0.82057191    -0.56300
C61         C  0.30341570  0.44505804  0.86087569     0.77400
O62         O  0.34515523  0.49506227  0.85086405    -0.58700
O63         O  0.31219822  0.48535464  0.81277423    -0.57200
O64         O  0.36120373  0.44189610  0.85079316    -0.57200
O65         O  0.30737619  0.43790011  0.84306690    -0.56300
O66         O  0.18694645  0.29819717  0.96671467    -0.57500
C67         C  0.13900353  0.33442571  0.94099097     0.75100
O68         O  0.16272194  0.35100170  0.00210414    -0.58700
C69         C  0.20443840  0.30222387  0.97485956     0.75100
C70         C  0.19997850  0.36417024  0.94678333     0.77500
Cd71       Cd  0.17411127  0.33454270  0.96856290     1.37500
O72         O  0.15124674  0.31901554  0.94207794    -0.57500
O73         O  0.19210578  0.34826156  0.93837016    -0.56300
C74         C  0.15371249  0.33470584  0.00870220     0.77400
O75         O  0.19547164  0.36705849  0.96575336    -0.58700
O76         O  0.14291468  0.34957490  0.95285384    -0.57200
O77         O  0.20786497  0.32101973  0.97938666    -0.57200
O78         O  0.15458983  0.31903802  0.99697861    -0.56300
O79         O  0.47688036  0.31557381  0.20391232    -0.57500
C80         C  0.45375865  0.36649356  0.16797476     0.75100
O81         O  0.51013188  0.34331277  0.18021386    -0.58700
C82         C  0.48400280  0.29779091  0.19923997     0.75100
C83         C  0.45306047  0.30295335  0.14053903     0.77500
Cd84       Cd  0.47760647  0.32857950  0.16757233     1.37500
O85         O  0.45512341  0.35538446  0.18418889    -0.57500
O86         O  0.44599510  0.31128954  0.15685464    -0.56300
C87         C  0.51873400  0.34552411  0.16273112     0.77400
O88         O  0.47183493  0.30709673  0.13592561    -0.58700
O89         O  0.46326128  0.35991779  0.15212940    -0.57200
O90         O  0.48769311  0.29455881  0.18025833    -0.57200
O91         O  0.50869703  0.33885297  0.14717999    -0.56300
O92         O  0.30301360  0.18365191  0.04047321    -0.57500
C93         C  0.33632173  0.13774716  0.07373491     0.75100
O94         O  0.35841698  0.15558494  0.01248240    -0.58700
C95         C  0.30802240  0.19955745  0.02996216     0.75100
C96         C  0.36640514  0.19825434  0.06326764     0.77500
Cd97       Cd  0.33884137  0.16989677  0.04272894     1.37500
O98         O  0.32023889  0.14779614  0.06835122    -0.57500
O99         O  0.34872449  0.19309397  0.07027543    -0.56300
C100        C  0.34270014  0.14647555  0.00477868     0.77400
O101        O  0.37196865  0.18984706  0.04633570    -0.58700
O102        O  0.35318325  0.14272358  0.06488692    -0.57200
O103        O  0.32718816  0.20199479  0.02618503    -0.57200
O104        O  0.32583339  0.14825763  0.01467652    -0.56300
O105        O  0.64531623  0.82114350  0.45216533    -0.57500
C106        C  0.69827057  0.80479582  0.48393131     0.75100
O107        O  0.69239627  0.87085739  0.47093151    -0.58700
C108        C  0.63608728  0.83775004  0.44702219     0.75100
C109        C  0.64953274  0.84215682  0.51406483     0.77500
Cd110      Cd  0.67096044  0.83853699  0.47485045     1.37500
O111        O  0.68668221  0.80437796  0.46804001    -0.57500
O112        O  0.65183642  0.82514517  0.50458954    -0.56300
C113        C  0.70017939  0.86537713  0.45368071     0.77400
O114        O  0.65751112  0.85809452  0.50555989    -0.58700
O115        O  0.69718860  0.82078128  0.49528116    -0.57200
O116        O  0.64290113  0.85435025  0.45496014    -0.57200
O117        O  0.69473203  0.84776579  0.44699261    -0.56300
O118        O  0.85070680  0.95008919  0.31971750    -0.57500
C119        C  0.79561271  0.97713668  0.30272781     0.75100
O120        O  0.80339721  0.96935482  0.36893810    -0.58700
C121        C  0.85988604  0.94520409  0.33636693     0.75100
C122        C  0.84078691  0.01483469  0.34019651     0.77500
Cd123      Cd  0.82431075  0.97282495  0.33652127     1.37500
O124        O  0.81480554  0.97420636  0.29931071    -0.57500
O125        O  0.83875627  0.00538388  0.32321520    -0.56300
C126        C  0.79618613  0.95156680  0.36428478     0.77400
O127        O  0.83441528  0.00519058  0.35614371    -0.58700
O128        O  0.78996521  0.97765273  0.32149071    -0.57200
O129        O  0.85261170  0.95299756  0.35279727    -0.57200
O130        O  0.80209222  0.94403426  0.34713850    -0.56300
O131        O  0.69591180  0.03095315  0.18072039    -0.57500
C132        C  0.66519967  0.06189715  0.13315951     0.75100
O133        O  0.64125262  0.00201926  0.15010589    -0.58700
C134        C  0.69087407  0.01910812  0.19564802     0.75100
C135        C  0.63466877  0.05482653  0.19452452     0.77500
Cd136      Cd  0.66055786  0.03214599  0.16603112     1.37500
O137        O  0.68045644  0.05681986  0.14452796    -0.57500
O138        O  0.65234484  0.06096323  0.18842621    -0.56300
C139        C  0.65797263  0.99323480  0.14425840     0.77400
O140        O  0.62820105  0.03774084  0.18703381    -0.58700
O141        O  0.64803503  0.05295923  0.13688648    -0.57200
O142        O  0.67190761  0.01388084  0.19686017    -0.57200
O143        O  0.67472278  0.00267477  0.14820346    -0.56300
O144        O  0.56160340  0.17948690  0.35836025    -0.57500
C145        C  0.52589815  0.19137249  0.30517711     0.75100
O146        O  0.54283637  0.12841198  0.31440212    -0.58700
C147        C  0.56703220  0.16354110  0.36855671     0.75100
C148        C  0.49946237  0.15790568  0.35752858     0.77500
Cd149      Cd  0.53789948  0.16078954  0.33498943     1.37500
O150        O  0.53703425  0.19633940  0.32063004    -0.57500
O151        O  0.50710740  0.14176040  0.34915923    -0.56300
C152        C  0.55961261  0.13476293  0.30603925     0.77400
O153        O  0.50954168  0.17457081  0.35514981    -0.58700
O154        O  0.52064681  0.17249064  0.30369198    -0.57200
O155        O  0.55927420  0.14638651  0.36290504    -0.57200
O156        O  0.56620391  0.15237463  0.31178408    -0.56300
O157        O  0.53840103  0.31432246  0.79939492    -0.57500
C158        C  0.56509671  0.36406257  0.83589136     0.75100
O159        O  0.50723821  0.33800530  0.85468123    -0.58700
C160        C  0.52733488  0.29874154  0.80444808     0.75100
C161        C  0.56510060  0.30005893  0.85964772     0.77500
Cd162      Cd  0.53961138  0.32772124  0.83537484     1.37500
O163        O  0.56358611  0.35334891  0.81943497    -0.57500
O164        O  0.57056261  0.30678723  0.84201205    -0.56300
C165        C  0.49975807  0.34770906  0.83919693     0.77400
O166        O  0.54761575  0.30635337  0.86644468    -0.58700
O167        O  0.55504301  0.35765327  0.85152551    -0.57200
O168        O  0.52261286  0.29694580  0.82341239    -0.57200
O169        O  0.51068619  0.34779853  0.82289483    -0.56300
O170        O  0.69120454  0.20474418  0.98520916    -0.57500
C171        C  0.67816572  0.13802814  0.94132064     0.75100
O172        O  0.69123616  0.15401558  0.99740167    -0.58700
C173        C  0.71020342  0.20272258  0.98042172     0.75100
C174        C  0.65416432  0.20236343  0.94398032     0.77500
Cd175      Cd  0.67885488  0.17380267  0.96801952     1.37500
O176        O  0.69494964  0.14803503  0.94428766    -0.57500
O177        O  0.67228950  0.19687074  0.93853635    -0.56300
C178        C  0.67445836  0.15366792  0.00763484     0.77400
O179        O  0.64727179  0.19455321  0.96075135    -0.58700
O180        O  0.66212338  0.14482862  0.95043749    -0.57200
O181        O  0.71501744  0.18706629  0.96943808    -0.57200
O182        O  0.65896252  0.16286780  0.99953934    -0.56300
O183        O  0.65145007  0.44566057  0.17618106    -0.57500
C184        C  0.70075990  0.48498836  0.19253464     0.75100
O185        O  0.69360488  0.47042516  0.12785587    -0.58700
C186        C  0.64129268  0.44165414  0.15982299     0.75100
C187        C  0.64826322  0.51136490  0.15874697     0.77500
Cd188      Cd  0.67256669  0.47356891  0.16035028     1.37500
O189        O  0.68582685  0.47258533  0.19613270    -0.57500
O190        O  0.64868872  0.49941786  0.17429804    -0.56300
C191        C  0.70295517  0.45412432  0.13395937     0.77400
O192        O  0.65909221  0.50580231  0.14322223    -0.58700
O193        O  0.70235075  0.49190241  0.17423169    -0.57200
O194        O  0.64561197  0.45250032  0.14400804    -0.57200
O195        O  0.69795814  0.44731809  0.15166969    -0.56300
O196        O  0.82852718  0.31022349  0.03337095    -0.57500
C197        C  0.87440568  0.34744360  0.05937091     0.75100
O198        O  0.85131276  0.36524097  0.99976901    -0.58700
C199        C  0.81106972  0.31323915  0.02471163     0.75100
C200        C  0.81045330  0.37375843  0.05334022     0.77500
Cd201      Cd  0.83908819  0.34701749  0.03199142     1.37500
O202        O  0.86303851  0.33149331  0.05727254    -0.57500
O203        O  0.81730586  0.35702936  0.06104032    -0.56300
C204        C  0.85765808  0.34858445  0.99135639     0.77400
O205        O  0.81717931  0.37859533  0.03544161    -0.58700
O206        O  0.86945312  0.36317577  0.04869802    -0.57200
O207        O  0.80660891  0.33180132  0.01998943    -0.57200
O208        O  0.85510620  0.33208688  0.00162845    -0.56300
O209        O  0.44482759  0.17657837  0.65168950    -0.57500
C210        C  0.47914611  0.19190649  0.70222128     0.75100
O211        O  0.46757328  0.12578530  0.69562676    -0.58700
C212        C  0.44056966  0.16068111  0.64095399     0.75100
C213        C  0.51014879  0.15519095  0.65354484     0.77500
Cd214      Cd  0.47034033  0.15859738  0.67432656     1.37500
O215        O  0.47074859  0.19561328  0.68481331    -0.57500
O216        O  0.49922383  0.13912995  0.65692974    -0.56300
C217        C  0.45114874  0.13172146  0.70485076     0.77400
O218        O  0.50300081  0.17207113  0.66042099    -0.58700
O219        O  0.48319692  0.17312281  0.70640573    -0.57200
O220        O  0.44987105  0.14411735  0.64587962    -0.57200
O221        O  0.44391006  0.14913384  0.69934080    -0.56300
O222        O  0.30641008  0.03039423  0.82981267    -0.57500
C223        C  0.34346150  0.05766923  0.87612796     0.75100
O224        O  0.36285633  0.99780711  0.85398934    -0.58700
C225        C  0.31000035  0.02333982  0.81182021     0.75100
C226        C  0.37186223  0.05050397  0.81292257     0.77500
Cd227      Cd  0.34365604  0.02950704  0.84095783     1.37500
O228        O  0.32696938  0.05384449  0.86605931    -0.57500
O229        O  0.35633520  0.05905476  0.82146671    -0.56300
C230        C  0.34638510  0.98872262  0.86000152     0.77400
O231        O  0.37502359  0.03157785  0.81755967    -0.58700
O232        O  0.35974477  0.04853949  0.86994474    -0.57200
O233        O  0.32884893  0.01976773  0.80743329    -0.57200
O234        O  0.32958016  0.99834194  0.85686761    -0.56300
O235        O  0.35494274  0.81529374  0.55961002    -0.57500
C236        C  0.30247602  0.80107340  0.52319901     0.75100
O237        O  0.31068934  0.86526088  0.53811741    -0.58700
C238        C  0.36511381  0.83163542  0.56384569     0.75100
C239        C  0.35259184  0.83892199  0.49484073     0.77500
Cd240      Cd  0.33162578  0.83297432  0.53412787     1.37500
O241        O  0.31932271  0.79640423  0.53234973    -0.57500
O242        O  0.34946745  0.82129353  0.50287947    -0.56300
C243        C  0.30245653  0.85968764  0.55514399     0.77400
O244        O  0.34586519  0.85439653  0.50496475    -0.58700
O245        O  0.29947449  0.82012191  0.51941232    -0.57200
O246        O  0.35981513  0.84790540  0.55425212    -0.57200
O247        O  0.30788358  0.84212479  0.56211333    -0.56300
O248        O  0.15608147  0.93894463  0.68457099    -0.57500
C249        C  0.20603228  0.97842616  0.70412625     0.75100
O250        O  0.19927326  0.96442753  0.63873232    -0.58700
C251        C  0.14387948  0.93858435  0.66909823     0.75100
C252        C  0.15472568  0.00595672  0.66984492     0.77500
Cd253      Cd  0.17787100  0.96755495  0.67105546     1.37500
O254        O  0.19012389  0.96726452  0.70768106    -0.57500
O255        O  0.16515942  0.00015174  0.65412877    -0.56300
C256        C  0.20523474  0.94601001  0.64266933     0.77400
O257        O  0.15528678  0.99412878  0.68548632    -0.58700
O258        O  0.20898424  0.98376135  0.68546314    -0.57200
O259        O  0.14734163  0.95177798  0.65495050    -0.57200
O260        O  0.19872984  0.93818262  0.65947058    -0.56300
O261        O  0.19558806  0.68407634  0.46651982    -0.57500
C262        C  0.16190031  0.63651835  0.44200968     0.75100
O263        O  0.14149009  0.65543156  0.50018521    -0.58700
C264        C  0.19244539  0.70050852  0.47684495     0.75100
C265        C  0.12831595  0.69665716  0.45029327     0.77500
Cd266      Cd  0.15956493  0.67116242  0.46995358     1.37500
O267        O  0.17728499  0.64858193  0.44454670    -0.57500
O268        O  0.14350060  0.68861285  0.44073835    -0.56300
C269        C  0.15809975  0.64993213  0.50924524     0.77400
O270        O  0.12735715  0.69315407  0.46963005    -0.58700
O271        O  0.14569846  0.64057001  0.45238441    -0.57200
O272        O  0.17401813  0.70364968  0.48304222    -0.57200
O273        O  0.17493961  0.65467161  0.50034343    -0.56300
O274        O  0.05380970  0.85519636  0.33151129    -0.57500
C275        C  0.01436408  0.80499530  0.31332919     0.75100
O276        O  0.02852736  0.81184320  0.37884278    -0.58700
C277        C  0.05796512  0.86425264  0.34846181     0.75100
C278        C  0.98910980  0.85741196  0.34586249     0.77500
Cd279      Cd  0.02629896  0.83269645  0.34602684     1.37500
O280        O  0.02683323  0.81986005  0.30959654    -0.57500
O281        O  0.99373569  0.84687732  0.36188792    -0.56300
C282        C  0.04310537  0.80043383  0.37190072     0.77400
O283        O  0.00171490  0.85644296  0.33087730    -0.58700
O284        O  0.00767995  0.80340583  0.33172123    -0.57200
O285        O  0.04809617  0.85808482  0.36429727    -0.57200
O286        O  0.04975168  0.80463191  0.35389058    -0.56300
O287        O  0.79821748  0.53096566  0.32087436    -0.57500
C288        C  0.83455957  0.56053408  0.36754386     0.75100
O289        O  0.85453804  0.49958352  0.34348661    -0.58700
C290        C  0.80306421  0.52315964  0.30349014     0.75100
C291        C  0.86248904  0.55343177  0.30631694     0.77500
Cd292      Cd  0.83477842  0.53155444  0.33358001     1.37500
O293        O  0.81771588  0.55587829  0.35843190    -0.57500
O294        O  0.84435449  0.55977464  0.31068095    -0.56300
C295        C  0.83926750  0.49146224  0.35297661     0.77400
O296        O  0.86821507  0.53656442  0.31480815    -0.58700
O297        O  0.85083967  0.55170813  0.36099664    -0.57200
O298        O  0.82211546  0.51930656  0.30046217    -0.57200
O299        O  0.82261283  0.50185814  0.35323275    -0.56300
O300        O  0.94152566  0.68250062  0.15277978    -0.57500
C301        C  0.97544697  0.69905862  0.20590228     0.75100
O302        O  0.96486351  0.63483143  0.19906642    -0.58700
C303        C  0.93827111  0.66606463  0.14244850     0.75100
C304        C  0.00583087  0.66377098  0.15508844     0.77500
Cd305      Cd  0.96679151  0.66643435  0.17674320     1.37500
O306        O  0.96489640  0.70289315  0.18973467    -0.57500
O307        O  0.99791696  0.64759258  0.16313892    -0.56300
C308        C  0.94637681  0.63849863  0.20501901     0.77400
O309        O  0.99576978  0.68045228  0.15736569    -0.58700
O310        O  0.98171555  0.68057489  0.20817588    -0.57200
O311        O  0.94797998  0.64999466  0.14823819    -0.57200
O312        O  0.93782694  0.65459554  0.19765062    -0.56300
O313        O  0.69925453  0.96182236  0.81430751    -0.57500
C314        C  0.66435602  0.93887369  0.86449617     0.75100
O315        O  0.65062914  0.00260529  0.84602902    -0.58700
C316        C  0.70036854  0.97910954  0.80490437     0.75100
C317        C  0.63792444  0.95372936  0.80102416     0.77500
Cd318      Cd  0.66608134  0.96975535  0.83205970     1.37500
O319        O  0.68134780  0.94335579  0.85553867    -0.57500
O320        O  0.63202901  0.96859293  0.81256300    -0.56300
C321        C  0.66672695  0.00719309  0.85651728     0.77400
O322        O  0.65623240  0.94721848  0.80392616    -0.58700
O323        O  0.64836202  0.94835950  0.85813948    -0.57200
O324        O  0.68578827  0.99190237  0.80823193    -0.57200
O325        O  0.68166126  0.99444499  0.85573544    -0.56300
O326        O  0.53697276  0.80347821  0.69203846    -0.57500
C327        C  0.55650726  0.83906916  0.63985623     0.75100
O328        O  0.50201518  0.82327742  0.65714980    -0.58700
C329        C  0.52102782  0.80389013  0.70366587     0.75100
C330        C  0.55135064  0.86757869  0.70339121     0.77500
Cd331      Cd  0.53038971  0.83828079  0.67639272     1.37500
O332        O  0.55515245  0.82292488  0.65107363    -0.57500
O333        O  0.53276302  0.87088957  0.69762026    -0.56300
C334        C  0.49066377  0.83925833  0.65605309     0.77400
O335        O  0.55950723  0.85084384  0.69715750    -0.58700
O336        O  0.54569026  0.85447414  0.64547423    -0.57200
O337        O  0.51021870  0.82029843  0.70314872    -0.57200
O338        O  0.49770705  0.85567700  0.66442873    -0.56300
O339        O  0.85698723  0.05633551  0.67883176    -0.57500
C340        C  0.80798307  0.01866178  0.69900646     0.75100
O341        O  0.81076166  0.03163881  0.63205659    -0.58700
C342        C  0.86597768  0.06034919  0.66178124     0.75100
C343        C  0.85894421  0.99350951  0.66185409     0.77500
Cd344      Cd  0.83330352  0.03009338  0.66403954     1.37500
O345        O  0.81716486  0.03610725  0.69845055    -0.57500
O346        O  0.85753626  0.00490185  0.67773848    -0.56300
C347        C  0.80164437  0.04814768  0.63788534     0.77400
O348        O  0.84840474  0.99904174  0.64611608    -0.58700
O349        O  0.81065623  0.00683194  0.68357284    -0.57200
O350        O  0.85944267  0.05070798  0.64602315    -0.57200
O351        O  0.80698757  0.05524103  0.65533200    -0.56300
O352        O  0.68622558  0.20440650  0.54170272    -0.57500
C353        C  0.63872545  0.16406832  0.56457067     0.75100
O354        O  0.65486881  0.18237107  0.50887027    -0.58700
C355        C  0.70394550  0.20107082  0.53369535     0.75100
C356        C  0.70180105  0.13787713  0.55707403     0.77500
Cd357      Cd  0.67442193  0.16749516  0.53756511     1.37500
O358        O  0.64925380  0.18072033  0.56362746    -0.57500
O359        O  0.69438873  0.15356218  0.56630326    -0.56300
C360        C  0.65503731  0.16663653  0.49719513     0.77400
O361        O  0.69631891  0.13543177  0.53832802    -0.58700
O362        O  0.64481210  0.14931825  0.55315427    -0.57200
O363        O  0.70747198  0.18274701  0.52762684    -0.57200
O364        O  0.66475823  0.15087350  0.50392197    -0.56300
O365        O  0.46065420  0.68745956  0.80877887    -0.57500
C366        C  0.43994352  0.63330069  0.83870391     0.75100
O367        O  0.49661549  0.64939880  0.82655768    -0.58700
C368        C  0.47791369  0.69704251  0.80882485     0.75100
C369        C  0.44976714  0.69607118  0.87151429     0.77500
Cd370      Cd  0.46786368  0.66824078  0.84154504     1.37500
O371        O  0.44400240  0.64441691  0.82297728    -0.57500
O372        O  0.44045773  0.68947743  0.85558517    -0.56300
C373        C  0.50591835  0.64507889  0.84325411     0.77400
O374        O  0.46823933  0.68964305  0.87414750    -0.58700
O375        O  0.44844661  0.63866816  0.85552804    -0.57200
O376        O  0.48980418  0.69366377  0.82406923    -0.57200
O377        O  0.49760926  0.65160215  0.85988294    -0.56300
O378        O  0.32565015  0.84940745  0.95165863    -0.57500
C379        C  0.30876465  0.79662451  0.98665329     0.75100
O380        O  0.37452216  0.80638150  0.97517104    -0.58700
C381        C  0.34173320  0.86059960  0.94927466     0.75100
C382        C  0.34272493  0.84710598  0.01698219     0.77500
Cd383      Cd  0.34128642  0.82615954  0.97798262     1.37500
O384        O  0.30481415  0.81394347  0.97813179    -0.57500
O385        O  0.32624404  0.84470049  0.00663162    -0.56300
C386        C  0.36943110  0.79852147  0.95784349     0.77400
O387        O  0.35915148  0.83900874  0.00962698    -0.58700
O388        O  0.32767354  0.79281807  0.99059063    -0.57200
O389        O  0.35740218  0.85576965  0.96008267    -0.57200
O390        O  0.35202490  0.80394452  0.95043264    -0.56300
O391        O  0.32262963  0.52982583  0.20324044    -0.57500
C392        C  0.36622595  0.56170756  0.16586524     0.75100
O393        O  0.35792146  0.50212166  0.18036356    -0.58700
C394        C  0.30777205  0.51724279  0.20000433     0.75100
C395        C  0.30385658  0.54727183  0.14094719     0.77500
Cd396      Cd  0.33533638  0.52900108  0.16685957     1.37500
O397        O  0.35835414  0.55548108  0.18280483    -0.57500
O398        O  0.30954801  0.55457973  0.15822967    -0.56300
C399        C  0.36084090  0.49225519  0.16372368     0.77400
O400        O  0.31277506  0.53064945  0.13510338    -0.58700
O401        O  0.35972117  0.55289603  0.14960439    -0.57200
O402        O  0.30597527  0.51033653  0.18173266    -0.57200
O403        O  0.35158398  0.49918415  0.14776625    -0.56300
O404        O  0.20222398  0.67422894  0.02458017    -0.57500
C405        C  0.13716177  0.66244923  0.07039403     0.75100
O406        O  0.15173782  0.67576365  0.01345783    -0.58700
C407        C  0.20106357  0.69254753  0.03156645     0.75100
C408        C  0.19921854  0.63247720  0.06159294     0.77500
Cd409      Cd  0.17128962  0.66094426  0.04167406     1.37500
O410        O  0.14829838  0.67833604  0.06690441    -0.57500
O411        O  0.19511510  0.65034938  0.06863475    -0.56300
C412        C  0.15046959  0.65964445  0.00241047     0.77400
O413        O  0.19009230  0.62732674  0.04492626    -0.58700
O414        O  0.14213250  0.64602308  0.06087798    -0.57200
O415        O  0.18597447  0.69642528  0.04366525    -0.57200
O416        O  0.15844449  0.64318787  0.00977593    -0.56300
O417        O  0.80593752  0.32188766  0.48057565    -0.57500
C418        C  0.84141846  0.36544531  0.44434742     0.75100
O419        O  0.86223573  0.34955416  0.50652007    -0.58700
C420        C  0.81100766  0.30619324  0.49134749     0.75100
C421        C  0.86961875  0.30602810  0.45592115     0.77500
Cd422      Cd  0.84239757  0.33461103  0.47660977     1.37500
O423        O  0.82503117  0.35564831  0.44945671    -0.57500
O424        O  0.85234210  0.31188989  0.44851963    -0.56300
C425        C  0.84696933  0.36048905  0.51261011     0.77400
O426        O  0.87455725  0.31325139  0.47357422    -0.58700
O427        O  0.85785282  0.36084734  0.45410618    -0.57200
O428        O  0.83023679  0.30372349  0.49470567    -0.57200
O429        O  0.83051327  0.35927321  0.50200601    -0.56300
O430        O  0.96308030  0.19013609  0.30937520    -0.57500
C431        C  0.93471069  0.13974626  0.34134314     0.75100
O432        O  0.99485118  0.14957982  0.32884831    -0.58700
C433        C  0.98058203  0.19923644  0.31050163     0.75100
C434        C  0.95011485  0.20281592  0.37024110     0.77500
Cd435      Cd  0.96693429  0.17155480  0.34267041     1.37500
O436        O  0.94083828  0.14867992  0.32490172    -0.57500
O437        O  0.94434195  0.20041005  0.35168323    -0.56300
C438        C  0.00474597  0.14743163  0.34564795     0.77400
O439        O  0.96434296  0.19068814  0.37655045    -0.58700
O440        O  0.94344028  0.14550462  0.35791742    -0.57200
O441        O  0.99148381  0.19552394  0.32639452    -0.57200
O442        O  0.99697138  0.15621367  0.36148314    -0.56300
O443        O  0.18330643  0.44200997  0.35772735    -0.57500
C444        C  0.20079395  0.47589372  0.30602847     0.75100
O445        O  0.13451603  0.46401529  0.31296828    -0.58700
C446        C  0.16668327  0.43813284  0.36760184     0.75100
C447        C  0.16427760  0.50690688  0.35549138     0.77500
Cd448      Cd  0.16713469  0.46770029  0.33420621     1.37500
O449        O  0.20398177  0.46659026  0.32304398    -0.57500
O450        O  0.18062284  0.49607034  0.35480735    -0.56300
C451        C  0.13919570  0.44576051  0.30710787     0.77400
O452        O  0.14849469  0.49965002  0.34615276    -0.58700
O453        O  0.18221380  0.48112372  0.30213982    -0.57200
O454        O  0.15065883  0.44814250  0.36217044    -0.57200
O455        O  0.15643174  0.43868847  0.31341226    -0.56300
O456        O  0.04424115  0.29957819  0.19081004    -0.57500
C457        C  0.06863137  0.33159661  0.14008780     0.75100
O458        O  0.01046479  0.35613167  0.15928054    -0.58700
C459        C  0.02741839  0.30026485  0.20109760     0.75100
C460        C  0.05725918  0.35968334  0.20587341     0.77500
Cd461      Cd  0.03894382  0.33396451  0.17399243     1.37500
O462        O  0.05983416  0.31550488  0.14725921    -0.57500
O463        O  0.06403629  0.34196344  0.20084941    -0.56300
C464        C  0.00078042  0.34093062  0.15129892     0.77400
O465        O  0.04154808  0.36617530  0.19587163    -0.58700
O466        O  0.06413737  0.34851618  0.14893711    -0.57200
O467        O  0.01614370  0.31615133  0.19846147    -0.57200
O468        O  0.00870886  0.32318896  0.15406398    -0.56300
O469        O  0.82870994  0.70027505  0.96869769    -0.57500
C470        C  0.87338775  0.66236560  0.94019273     0.75100
O471        O  0.85684816  0.67699381  0.99820739    -0.58700
C472        C  0.81104708  0.69698111  0.97686229     0.75100
C473        C  0.80799103  0.63638078  0.94923121     0.77500
Cd474      Cd  0.83865270  0.66289316  0.96868702     1.37500
O475        O  0.86220024  0.67840175  0.94242832    -0.57500
O476        O  0.81398906  0.65346095  0.94152140    -0.56300
C477        C  0.85768222  0.66078917  0.00919141     0.77400
O478        O  0.81684025  0.63081252  0.96594078    -0.58700
O479        O  0.86825133  0.64663904  0.95081308    -0.57200
O480        O  0.80655646  0.67829597  0.98098227    -0.57200
O481        O  0.84968368  0.64453423  0.00142492    -0.56300
O482        O  0.68493237  0.53209319  0.80589873    -0.57500
C483        C  0.63701562  0.55995658  0.84143140     0.75100
O484        O  0.65972859  0.50123636  0.86029649    -0.58700
C485        C  0.70143852  0.52226966  0.81036693     0.75100
C486        C  0.69921251  0.55511483  0.87101663     0.77500
Cd487      Cd  0.67249620  0.53305673  0.84241795     1.37500
O488        O  0.64989008  0.55965368  0.82650250    -0.57500
O489        O  0.69352647  0.56241761  0.85369563    -0.56300
C490        C  0.65174329  0.49370057  0.84393645     0.77400
O491        O  0.69241525  0.53713119  0.87556197    -0.58700
O492        O  0.64087680  0.54807700  0.85656972    -0.57200
O493        O  0.70445935  0.51820648  0.82932584    -0.57200
O494        O  0.65374936  0.50424764  0.82755316    -0.56300
O495        O  0.70635955  0.81803136  0.02904184    -0.57500
C496        C  0.66787653  0.86317898  0.05883812     0.75100
O497        O  0.64808848  0.83943685  0.00021387    -0.58700
C498        C  0.70279786  0.80165716  0.01868783     0.75100
C499        C  0.64372849  0.79988925  0.05447057     0.77500
Cd500      Cd  0.66909142  0.82838630  0.03109048     1.37500
O501        O  0.68425869  0.85229968  0.05712267    -0.57500
O502        O  0.66171800  0.80540596  0.06025671    -0.56300
C503        C  0.66325498  0.84908616  0.99200694     0.77400
O504        O  0.63733777  0.80736549  0.03739786    -0.58700
O505        O  0.65257925  0.85785535  0.04775418    -0.57200
O506        O  0.68391224  0.79779418  0.01460552    -0.57200
O507        O  0.68021569  0.84887550  0.00188880    -0.56300
O508        O  0.53419122  0.68842013  0.20237633    -0.57500
C509        C  0.55673967  0.63856964  0.16513506     0.75100
O510        O  0.49813754  0.66546813  0.14720616    -0.58700
C511        C  0.52670936  0.70620308  0.19830902     0.75100
C512        C  0.55536056  0.70165290  0.13896247     0.77500
Cd513      Cd  0.53104662  0.67550201  0.16607634     1.37500
O514        O  0.55277225  0.64766452  0.18212365    -0.57500
O515        O  0.56273151  0.69260825  0.15475900    -0.56300
C516        C  0.48950809  0.65786405  0.16322970     0.77400
O517        O  0.53627051  0.69823591  0.13500690    -0.58700
O518        O  0.54861986  0.64637721  0.14906115    -0.57200
O519        O  0.52152502  0.70948940  0.17969085    -0.57200
O520        O  0.49974123  0.65923434  0.17987124    -0.56300
O521        O  0.48940893  0.83195359  0.30219589    -0.57500
C522        C  0.44092666  0.84324008  0.36618759     0.75100
O523        O  0.49858398  0.82796431  0.35361105    -0.58700
C524        C  0.48454282  0.81294604  0.30360576     0.75100
C525        C  0.45043776  0.87055640  0.30503254     0.77500
Cd526      Cd  0.47137567  0.84343284  0.33329586     1.37500
O527        O  0.44388506  0.82723409  0.35508386    -0.57500
O528        O  0.44390250  0.85271788  0.31014177    -0.56300
C529        C  0.50964019  0.84402892  0.35589637     0.77400
O530        O  0.46740859  0.87649448  0.31325921    -0.58700
O531        O  0.45207678  0.85892236  0.36205531    -0.57200
O532        O  0.47285269  0.80785452  0.31868281    -0.57200
O533        O  0.50281020  0.86072008  0.34784623    -0.56300
O534        O  0.29338967  0.96585154  0.18810735    -0.57500
C535        C  0.33296178  0.94048416  0.14120703     0.75100
O536        O  0.34807897  0.00011885  0.16808564    -0.58700
C537        C  0.29731711  0.97042497  0.20680562     0.75100
C538        C  0.36117060  0.94815792  0.20290771     0.77500
Cd539      Cd  0.33049666  0.96715357  0.17693953     1.37500
O540        O  0.31659778  0.94114052  0.15218865    -0.57500
O541        O  0.34593165  0.93835411  0.19521650    -0.56300
C542        C  0.33211817  0.00860699  0.16028111     0.77400
O543        O  0.36273959  0.96723245  0.19814626    -0.58700
O544        O  0.34769322  0.95227390  0.14665200    -0.57200
O545        O  0.31629054  0.97250372  0.21149128    -0.57200
O546        O  0.31555183  0.99803788  0.16059339    -0.56300
O547        O  0.36023710  0.18027494  0.44764697    -0.57500
C548        C  0.30640502  0.19881471  0.47890731     0.75100
O549        O  0.31184828  0.13392481  0.46929293    -0.58700
C550        C  0.36977661  0.16331382  0.44462648     0.75100
C551        C  0.35390586  0.16243403  0.51172755     0.77500
Cd552      Cd  0.33455855  0.16522885  0.47174443     1.37500
O553        O  0.32330997  0.20218507  0.46929584    -0.57500
O554        O  0.35339708  0.17891313  0.50111998    -0.56300
C555        C  0.30559915  0.13829680  0.45113511     0.77400
O556        O  0.34526899  0.14657265  0.50386331    -0.58700
O557        O  0.30293916  0.18033562  0.48459856    -0.57200
O558        O  0.36275777  0.14747812  0.45391454    -0.57200
O559        O  0.31312884  0.15453142  0.44293954    -0.56300
O560        O  0.14562215  0.05648529  0.33204770    -0.57500
C561        C  0.19656190  0.01786311  0.31578779     0.75100
O562        O  0.19101287  0.03678646  0.38067507    -0.58700
C563        C  0.13435075  0.05904389  0.34799419     0.75100
C564        C  0.14826572  0.99184896  0.35236727     0.77500
Cd565      Cd  0.16952231  0.03095246  0.34865322     1.37500
O566        O  0.18138068  0.02994315  0.31217651    -0.57500
O567        O  0.14828891  0.00290823  0.33619056    -0.56300
C568        C  0.19966102  0.05302840  0.37347888     0.77400
O569        O  0.15830491  0.99891858  0.36779447    -0.58700
O570        O  0.19928937  0.01248814  0.33446029    -0.57200
O571        O  0.13972029  0.04907310  0.36404725    -0.57200
O572        O  0.19403627  0.05862578  0.35552951    -0.56300
O573        O  0.82673831  0.45548369  0.64786460    -0.57500
C574        C  0.80823860  0.48113288  0.70465194     0.75100
O575        O  0.87364442  0.47381563  0.69745028    -0.58700
C576        C  0.84373088  0.45285411  0.63820890     0.75100
C577        C  0.84567023  0.51861043  0.65941460     0.77500
Cd578      Cd  0.84200109  0.47712554  0.67563468     1.37500
O579        O  0.80492585  0.47270722  0.68719813    -0.57500
O580        O  0.82856750  0.50905131  0.66092238    -0.56300
C581        C  0.87032432  0.45493053  0.70204361     0.77400
O582        O  0.86159392  0.50924640  0.66625581    -0.58700
O583        O  0.82664480  0.48717305  0.70811943    -0.57200
O584        O  0.85963888  0.46143482  0.64588728    -0.57200
O585        O  0.85415033  0.44673650  0.69438681    -0.56300
O586        O  0.96465004  0.30554563  0.81232219    -0.57500
C587        C  0.94611087  0.34063234  0.86320180     0.75100
O588        O  0.00299778  0.32408176  0.84678707    -0.58700
C589        C  0.98162199  0.30393352  0.80239251     0.75100
C590        C  0.95703480  0.36705928  0.79770848     0.77500
Cd591      Cd  0.97412650  0.33929068  0.82822518     1.37500
O592        O  0.94912237  0.32404307  0.85312280    -0.57500
O593        O  0.94956967  0.34943775  0.80204012    -0.56300
C594        C  0.01385921  0.34037994  0.84830368     0.77400
O595        O  0.97331315  0.37232702  0.80749001    -0.58700
O596        O  0.95606557  0.35643436  0.85709752    -0.57200
O597        O  0.99450107  0.31868710  0.80430553    -0.57200
O598        O  0.00635986  0.35681170  0.84039282    -0.56300
O599        O  0.05684516  0.14241357  0.68497175    -0.57500
C600        C  0.02212648  0.19391530  0.70038943     0.75100
O601        O  0.03813017  0.18914016  0.63395456    -0.58700
C602        C  0.06336298  0.13327643  0.66886088     0.75100
C603        C  0.99587420  0.14674240  0.66012069     0.77500
Cd604      Cd  0.03464395  0.16794427  0.66634282     1.37500
O605        O  0.03973019  0.18501957  0.70028819    -0.57500
O606        O  0.00537659  0.14735142  0.67724156    -0.56300
C607        C  0.05369785  0.19936255  0.64044343     0.77400
O608        O  0.00459633  0.15575192  0.64489458    -0.58700
O609        O  0.01052835  0.19072527  0.68489567    -0.57200
O610        O  0.05682120  0.14033632  0.65177400    -0.57200
O611        O  0.06000648  0.19493119  0.65845621    -0.56300
O612        O  0.20291063  0.31816353  0.53614508    -0.57500
C613        C  0.16719783  0.36376330  0.56375837     0.75100
O614        O  0.17955055  0.34963576  0.50672979    -0.58700
C615        C  0.19932901  0.30098432  0.52729600     0.75100
C616        C  0.13731838  0.30290154  0.55767046     0.77500
Cd617      Cd  0.16615996  0.32943466  0.53565545     1.37500
O618        O  0.18323982  0.35272134  0.56081958    -0.57500
O619        O  0.15452091  0.30879039  0.56519573    -0.56300
C620        C  0.16344773  0.34935295  0.49555560     0.77400
O621        O  0.13312186  0.30933060  0.53952820    -0.58700
O622        O  0.15108503  0.35896252  0.55358063    -0.57200
O623        O  0.18051910  0.29694471  0.52313220    -0.57200
O624        O  0.14784476  0.33972712  0.50289863    -0.56300
C625        C  0.06429429  0.21553295  0.62789013    -0.01000
C626        C  0.05791298  0.22016149  0.60765655    -0.09000
C627        C  0.06851168  0.23504975  0.59579403    -0.17900
C628        C  0.08598656  0.24576221  0.60384427     0.04500
C629        C  0.09220793  0.24106499  0.62446494     0.18700
C630        C  0.08134319  0.22624649  0.63619863    -0.19300
C631        C  0.10946900  0.25093435  0.63323932    -0.20600
C632        C  0.12105492  0.26510914  0.62183459    -0.19100
C633        C  0.11556619  0.26993453  0.60142146     0.20100
C634        C  0.09777330  0.26064104  0.59217114     0.02200
C635        C  0.09278903  0.26653204  0.57161284    -0.13800
C636        C  0.10533648  0.28051091  0.56056635    -0.11500
C637        C  0.12322272  0.28904188  0.56958355     0.01800
C638        C  0.12801634  0.28385890  0.59013904    -0.23700
H639        H  0.04477565  0.21211709  0.60088380     0.09800
H640        H  0.06283227  0.23763756  0.58030172     0.13300
H641        H  0.08642824  0.22284465  0.65185639     0.12100
H642        H  0.11423372  0.24744468  0.64897004     0.13200
H643        H  0.13452178  0.27224590  0.62900112     0.12300
H644        H  0.07937731  0.26050704  0.56361093     0.09400
H645        H  0.10118305  0.28439796  0.54477217     0.12600
H646        H  0.14168581  0.29052939  0.59739028     0.14500
C647        C  0.98652111  0.28586066  0.78925992    -0.01000
C648        C  0.97080555  0.27327654  0.78105539    -0.09000
C649        C  0.97572255  0.25695463  0.76761381    -0.17900
C650        C  0.99665163  0.25265854  0.76215958     0.04500
C651        C  0.01249478  0.26495809  0.77139413     0.18700
C652        C  0.00730576  0.28140765  0.78458313    -0.19300
C653        C  0.03347667  0.26102332  0.76720058    -0.20600
C654        C  0.03916430  0.24538366  0.75356982    -0.19100
C655        C  0.02399719  0.23353855  0.74351966     0.20100
C656        C  0.00249477  0.23692265  0.74766447     0.02200
C657        C  0.98784925  0.22489626  0.73656341    -0.13800
C658        C  0.99431011  0.21073212  0.72149254    -0.11500
C659        C  0.01549201  0.20768936  0.71739383     0.01800
C660        C  0.03025390  0.21876192  0.72881495    -0.23700
H661        H  0.95463308  0.27636370  0.78465126     0.09800
H662        H  0.96283062  0.24804778  0.76170638     0.13300
H663        H  0.01957145  0.29087269  0.79121789     0.12100
H664        H  0.04559572  0.27025210  0.77437585     0.13200
H665        H  0.05555298  0.24286866  0.75048737     0.12300
H666        H  0.97129962  0.22650941  0.73872378     0.09400
H667        H  0.98265208  0.20219434  0.71287842     0.12600
H668        H  0.04666826  0.21656237  0.72556217     0.14500
C669        C  0.88441160  0.44283461  0.71558492    -0.01000
C670        C  0.90205430  0.45186137  0.72460763    -0.09000
C671        C  0.91516330  0.44018791  0.73745983    -0.17900
C672        C  0.91096283  0.41900736  0.74166321     0.04500
C673        C  0.89306918  0.41001069  0.73229513     0.18700
C674        C  0.88009833  0.42189349  0.71952568    -0.19300
C675        C  0.88807262  0.38916669  0.73573437    -0.20600
C676        C  0.90033946  0.37698328  0.74850558    -0.19100
C677        C  0.91785245  0.38536677  0.75822604     0.20100
C678        C  0.92361493  0.40642805  0.75492511     0.02200
C679        C  0.94156971  0.41389062  0.76528595    -0.13800
C680        C  0.95284153  0.40108052  0.77881736    -0.11500
C681        C  0.94662274  0.38051808  0.78230219     0.01800
C682        C  0.92936161  0.37274985  0.77160569    -0.23700
H683        H  0.90572685  0.46803419  0.72176997     0.09800
H684        H  0.92840655  0.44815417  0.74390083     0.13300
H685        H  0.86650673  0.41472149  0.71260959     0.12100
H686        H  0.87448756  0.38224574  0.72857530     0.13200
H687        H  0.89594968  0.36091282  0.75098106     0.12300
H688        H  0.94707869  0.42959745  0.76348771     0.09400
H689        H  0.96619751  0.40740370  0.78686194     0.12600
H690        H  0.92448669  0.35680401  0.77404012     0.14500
C691        C  0.29129594  0.21526475  0.48376877    -0.01000
C692        C  0.29749495  0.23586435  0.48685792    -0.09000
C693        C  0.28325262  0.25060267  0.49416849    -0.17900
C694        C  0.26231700  0.24505319  0.49835895     0.04500
C695        C  0.25604117  0.22434946  0.49396859     0.18700
C696        C  0.27049843  0.20977449  0.48694465    -0.19300
C697        C  0.23540641  0.21812211  0.49686176    -0.20600
C698        C  0.22069090  0.23205351  0.50407540    -0.19100
C699        C  0.22637097  0.25240373  0.50899470     0.20100
C700        C  0.24731362  0.25918217  0.50660130     0.02200
C701        C  0.25224527  0.27968698  0.51276974    -0.13800
C702        C  0.23680937  0.29306989  0.52019858    -0.11500
C703        C  0.21607845  0.28647388  0.52153062     0.01800
C704        C  0.21107023  0.26605192  0.51618326    -0.23700
H705        H  0.31353671  0.24040129  0.48435416     0.09800
H706        H  0.28905542  0.26614091  0.49645329     0.13300
H707        H  0.26557287  0.19389531  0.48419745     0.12100
H708        H  0.23058409  0.20236386  0.49343058     0.13200
H709        H  0.20476585  0.22681860  0.50597149     0.12300
H710        H  0.26785484  0.28578610  0.51205005     0.09400
H711        H  0.24102277  0.30880025  0.52439253     0.12600
H712        H  0.19509183  0.26075780  0.51747836     0.14500
C713        C  0.21550301  0.06518847  0.38500449    -0.01000
C714        C  0.22337040  0.08340633  0.37606793    -0.09000
C715        C  0.23807864  0.09548482  0.38628298    -0.17900
C716        C  0.24561545  0.08979981  0.40604037     0.04500
C717        C  0.23794422  0.07112106  0.41504352     0.18700
C718        C  0.22296756  0.05902455  0.40452102    -0.19300
C719        C  0.24525847  0.06472060  0.43447894    -0.20600
C720        C  0.25991736  0.07652339  0.44519622    -0.19100
C721        C  0.26759685  0.09509468  0.43681208     0.20100
C722        C  0.26049220  0.10199877  0.41710852     0.02200
C723        C  0.26850793  0.12091287  0.40934380    -0.13800
C724        C  0.28305197  0.13233798  0.42049326    -0.11500
C725        C  0.29018338  0.12551526  0.43982075     0.01800
C726        C  0.28232315  0.10686438  0.44798037    -0.23700
H727        H  0.21806005  0.08851696  0.36097562     0.09800
H728        H  0.24320638  0.10917810  0.37817287     0.13300
H729        H  0.21713071  0.04486043  0.41152500     0.12100
H730        H  0.23958776  0.05048342  0.44145815     0.13200
H731        H  0.26523291  0.07111505  0.46019135     0.12300
H732        H  0.26385279  0.12745036  0.39471270     0.09400
H733        H  0.28869574  0.14674693  0.41386445     0.12600
H734        H  0.28766732  0.10149018  0.46298365     0.14500
C735        C  0.28086024  0.97411610  0.22236371    -0.01000
C736        C  0.26061445  0.97927780  0.21628259    -0.09000
C737        C  0.24588408  0.98564188  0.23092922    -0.17900
C738        C  0.25100770  0.98690760  0.25222550     0.04500
C739        C  0.27123007  0.98040590  0.25835789     0.18700
C740        C  0.28589152  0.97427125  0.24347375    -0.19300
C741        C  0.27689858  0.98047060  0.27927745    -0.20600
C742        C  0.26300089  0.98718211  0.29431739    -0.19100
C743        C  0.24326879  0.99444137  0.28875724     0.20100
C744        C  0.23697185  0.99456348  0.26763375     0.02200
C745        C  0.21714359  0.00285632  0.26287409    -0.13800
C746        C  0.20419345  0.01066959  0.27844632    -0.11500
C747        C  0.21041114  0.01017211  0.29921572     0.01800
C748        C  0.22990749  0.00188791  0.30424888    -0.23700
H749        H  0.25636097  0.97915383  0.20004767     0.09800
H750        H  0.23069737  0.98963587  0.22509267     0.13300
H751        H  0.30147058  0.97000665  0.24832741     0.12100
H752        H  0.29224200  0.97538028  0.28404016     0.13200
H753        H  0.26787813  0.98707380  0.31039045     0.12300
H754        H  0.21134196  0.00383653  0.24724375     0.09400
H755        H  0.18914036  0.01693149  0.27422923     0.12600
H756        H  0.23488765  0.00157303  0.32029969     0.14500
C757        C  0.43849522  0.88328692  0.29008908    -0.01000
C758        C  0.44509518  0.90304188  0.28373275    -0.09000
C759        C  0.43343520  0.91448532  0.26931072    -0.17900
C760        C  0.41479705  0.90637057  0.26079715     0.04500
C761        C  0.40835510  0.88630440  0.26741889     0.18700
C762        C  0.42007155  0.87516648  0.28186272    -0.19300
C763        C  0.39023618  0.87726466  0.25957654    -0.20600
C764        C  0.37823531  0.88768621  0.24514814    -0.19100
C765        C  0.38396378  0.90747804  0.23833794     0.20100
C766        C  0.40225072  0.91725302  0.24602021     0.02200
C767        C  0.40693517  0.93745902  0.23864509    -0.13800
C768        C  0.39380220  0.94751690  0.22448633    -0.11500
C769        C  0.37581734  0.93766915  0.21712689     0.01800
C770        C  0.37120198  0.91759014  0.22400501    -0.23700
H771        H  0.45931257  0.90964046  0.28986718     0.09800
H772        H  0.43941100  0.92954314  0.26504972     0.13300
H773        H  0.41476956  0.85989514  0.28663311     0.12100
H774        H  0.38531650  0.86195905  0.26460935     0.13200
H775        H  0.36427667  0.88023693  0.23935460     0.12300
H776        H  0.42047201  0.94593130  0.24371035     0.09400
H777        H  0.39768282  0.96307013  0.21936857     0.12600
H778        H  0.35727834  0.90984682  0.21849100     0.14500
C779        C  0.52367079  0.72236854  0.21426761    -0.01000
C780        C  0.52301087  0.74330196  0.20842404    -0.09000
C781        C  0.51829830  0.75873700  0.22283453    -0.17900
C782        C  0.51354356  0.75365015  0.24363342     0.04500
C783        C  0.51439898  0.73236559  0.24953245     0.18700
C784        C  0.51988826  0.71703956  0.23498199    -0.19300
C785        C  0.50902615  0.72642616  0.26971484    -0.20600
C786        C  0.50209930  0.74105872  0.28398326    -0.19100
C787        C  0.50087390  0.76208715  0.27860737     0.20100
C788        C  0.50722122  0.76878755  0.25855958     0.02200
C789        C  0.50673675  0.79032842  0.25428794    -0.13800
C790        C  0.49951662  0.80446039  0.26900260    -0.11500
C791        C  0.49232252  0.79768044  0.28835429     0.01800
C792        C  0.49322715  0.77647036  0.29314080    -0.23700
H793        H  0.52593140  0.74776967  0.19249125     0.09800
H794        H  0.51779768  0.77441321  0.21700948     0.13300
H795        H  0.52016375  0.70082820  0.23954132     0.12100
H796        H  0.50964404  0.71025337  0.27433882     0.13200
H797        H  0.49755864  0.73586450  0.29931692     0.12300
H798        H  0.51195277  0.79678811  0.23977516     0.09400
H799        H  0.49930550  0.82082041  0.26507475     0.12600
H800        H  0.48817065  0.77116953  0.30828794     0.14500
C801        C  0.63101703  0.78549021  0.06716349    -0.01000
C802        C  0.64015212  0.77458751  0.08360039    -0.09000
C803        C  0.62847935  0.76084763  0.09567519    -0.17900
C804        C  0.60705421  0.75761671  0.09179044     0.04500
C805        C  0.59774441  0.76908139  0.07538893     0.18700
C806        C  0.60975699  0.78272387  0.06321201    -0.19300
C807        C  0.57649646  0.76683203  0.07120073    -0.20600
C808        C  0.56428104  0.75324788  0.08278440    -0.19100
C809        C  0.57300646  0.74144461  0.09879526     0.20100
C810        C  0.59453774  0.74346247  0.10354424     0.02200
C811        C  0.60260212  0.73111685  0.11977464    -0.13800
C812        C  0.58984121  0.71754214  0.13087286    -0.11500
C813        C  0.56860683  0.71565533  0.12627327     0.01800
C814        C  0.56030020  0.72763472  0.11011893    -0.23700
H815        H  0.65652534  0.77653874  0.08707458     0.09800
H816        H  0.63671388  0.75304397  0.10794912     0.13300
H817        H  0.60249128  0.79130571  0.05069592     0.12100
H818        H  0.56926099  0.77562219  0.05882205     0.13200
H819        H  0.54788954  0.75187484  0.07910241     0.12300
H820        H  0.61872464  0.73152874  0.12429894     0.09400
H821        H  0.59671824  0.70848194  0.14324722     0.12600
H822        H  0.54388872  0.72635725  0.10645851     0.14500
C823        C  0.79188171  0.48422553  0.72047178    -0.01000
C824        C  0.79803840  0.48828042  0.74083523    -0.09000
C825        C  0.78358210  0.49346861  0.75594302    -0.17900
C826        C  0.76221224  0.49511912  0.75118682     0.04500
C827        C  0.75572899  0.49001315  0.73074244     0.18700
C828        C  0.77058632  0.48449366  0.71557117    -0.19300
C829        C  0.73456780  0.49094209  0.72556281    -0.20600
C830        C  0.71982400  0.49735889  0.74009945    -0.19100
C831        C  0.72587943  0.50314898  0.76014331     0.20100
C832        C  0.74718312  0.50193220  0.76597279     0.02200
C833        C  0.75264554  0.50794535  0.78630975    -0.13800
C834        C  0.73766097  0.51457833  0.80032791    -0.11500
C835        C  0.71675948  0.51585902  0.79462378     0.01800
C836        C  0.71086577  0.51023755  0.77445147    -0.23700
H837        H  0.81432442  0.48774350  0.74513394     0.09800
H838        H  0.78981956  0.49634705  0.77114529     0.13300
H839        H  0.76567086  0.48120925  0.69984754     0.12100
H840        H  0.72941364  0.48691353  0.71009823     0.13200
H841        H  0.70361049  0.49806068  0.73554851     0.12300
H842        H  0.76838766  0.50780894  0.79199340     0.09400
H843        H  0.74252807  0.51893747  0.81579562     0.12600
H844        H  0.69460736  0.51102505  0.77004049     0.14500
C845        C  0.79610755  0.71376157  0.98137684    -0.01000
C846        C  0.80269332  0.73404769  0.98560284    -0.09000
C847        C  0.78825490  0.74938039  0.99117333    -0.17900
C848        C  0.76670099  0.74482969  0.99233298     0.04500
C849        C  0.76021280  0.72438213  0.98707325     0.18700
C850        C  0.77486377  0.70913775  0.98200432    -0.19300
C851        C  0.73911521  0.71912905  0.98700039    -0.20600
C852        C  0.72416720  0.73367685  0.99232908    -0.19100
C853        C  0.72998976  0.75370028  0.99835356     0.20100
C854        C  0.75130764  0.75963967  0.99857294     0.02200
C855        C  0.75619629  0.77993623  0.00548744    -0.13800
C856        C  0.74053073  0.79356328  0.01209178    -0.11500
C857        C  0.71957819  0.78753937  0.01170011     0.01800
C858        C  0.71447835  0.76766519  0.00455045    -0.23700
H859        H  0.81908724  0.73793759  0.98509786     0.09800
H860        H  0.79437624  0.76460623  0.99442612     0.13300
H861        H  0.76966078  0.69351532  0.97841284     0.12100
H862        H  0.73411203  0.70360465  0.98280352     0.13200
H863        H  0.70794821  0.72910254  0.99213022     0.12300
H864        H  0.77195265  0.78554910  0.00633065     0.09400
H865        H  0.74484611  0.80890261  0.01747355     0.12600
H866        H  0.69833235  0.76281582  0.00425691     0.14500
C867        C  0.79126731  0.62401281  0.93920504    -0.01000
C868        C  0.78498576  0.60473774  0.94716250    -0.09000
C869        C  0.76909127  0.59330201  0.93759160    -0.17900
C870        C  0.75890007  0.60085708  0.91964490     0.04500
C871        C  0.76511675  0.62061926  0.91193421     0.18700
C872        C  0.78109224  0.63185495  0.92164918    -0.19300
C873        C  0.75550179  0.62906570  0.89441405    -0.20600
C874        C  0.74017764  0.61809182  0.88396740    -0.19100
C875        C  0.73410683  0.59834427  0.89071283     0.20100
C876        C  0.74308599  0.58948268  0.90880907     0.02200
C877        C  0.73611450  0.56948974  0.91488305    -0.13800
C878        C  0.72153500  0.55850727  0.90297621    -0.11500
C879        C  0.71336268  0.56709607  0.88475058     0.01800
C880        C  0.71942898  0.58723056  0.87905452    -0.23700
H881        H  0.79243689  0.59840914  0.96082429     0.09800
H882        H  0.76519178  0.57857517  0.94452370     0.13300
H883        H  0.78562718  0.64684505  0.91543670     0.12100
H884        H  0.76005641  0.64419114  0.88857330     0.13200
H885        H  0.73327039  0.62497226  0.87026844     0.12300
H886        H  0.74191771  0.56179685  0.92853672     0.09400
H887        H  0.71697250  0.54305793  0.90784365     0.12600
H888        H  0.71306186  0.59417851  0.86512341     0.14500
C889        C  0.16586416  0.42290456  0.38470999    -0.01000
C890        C  0.14665424  0.41534172  0.39167953    -0.09000
C891        C  0.14549050  0.40183801  0.40857517    -0.17900
C892        C  0.16362340  0.39571266  0.41935241     0.04500
C893        C  0.18312763  0.40318099  0.41195028     0.18700
C894        C  0.18408869  0.41637253  0.39461372    -0.19300
C895        C  0.20153047  0.39793886  0.42224536    -0.20600
C896        C  0.20096925  0.38597658  0.44016089    -0.19100
C897        C  0.18201769  0.37870640  0.44805990     0.20100
C898        C  0.16308781  0.38301583  0.43755057     0.02200
C899        C  0.14447038  0.37473851  0.44598656    -0.13800
C900        C  0.14461543  0.36340329  0.46450411    -0.11500
C901        C  0.16322603  0.36000108  0.47520536     0.01800
C902        C  0.18189641  0.36742245  0.46666830    -0.23700
H903        H  0.13236371  0.42001589  0.38410707     0.09800
H904        H  0.13013515  0.39688571  0.41310186     0.13300
H905        H  0.19901551  0.42217571  0.38929620     0.12100
H906        H  0.21643695  0.40351995  0.41666613     0.13200
H907        H  0.21546522  0.38257350  0.44803051     0.12300
H908        H  0.12953205  0.37687203  0.43874919     0.09400
H909        H  0.13002873  0.35765683  0.47068801     0.12600
H910        H  0.19645367  0.36461643  0.47467656     0.14500
C911        C  0.06759274  0.37180878  0.22247683    -0.01000
C912        C  0.08397178  0.36269756  0.23351796    -0.09000
C913        C  0.09488981  0.37379968  0.24845367    -0.17900
C914        C  0.08994045  0.39470323  0.25288473     0.04500
C915        C  0.07279289  0.40375677  0.24229526     0.18700
C916        C  0.06177739  0.39227863  0.22723612    -0.19300
C917        C  0.06704226  0.42430066  0.24657025    -0.20600
C918        C  0.07832195  0.43622385  0.26067956    -0.19100
C919        C  0.09577121  0.42798609  0.27076468     0.20100
C920        C  0.10166840  0.40700630  0.26712606     0.02200
C921        C  0.11943389  0.39936920  0.27747765    -0.13800
C922        C  0.13113514  0.41206938  0.29039031    -0.11500
C923        C  0.12563316  0.43283425  0.29373683     0.01800
C924        C  0.10766542  0.44066223  0.28413222    -0.23700
H925        H  0.08861100  0.34682417  0.23046171     0.09800
H926        H  0.10725643  0.36551861  0.25608902     0.13300
H927        H  0.04897401  0.39941825  0.21894894     0.12100
H928        H  0.05387963  0.43129359  0.23874221     0.13200
H929        H  0.07359473  0.45213648  0.26341971     0.12300
H930        H  0.12502092  0.38371161  0.27571065     0.09400
H931        H  0.14477472  0.40549036  0.29773893     0.12600
H932        H  0.10320456  0.45669063  0.28667867     0.14500
C933        C  0.02427028  0.13520833  0.34657545    -0.01000
C934        C  0.03221736  0.12860644  0.36564001    -0.09000
C935        C  0.05020177  0.11646003  0.36662243    -0.17900
C936        C  0.06105713  0.11063410  0.34843326     0.04500
C937        C  0.05331168  0.11794217  0.32913060     0.18700
C938        C  0.03500032  0.12991098  0.32835697    -0.19300
C939        C  0.06387260  0.11323555  0.31072643    -0.20600
C940        C  0.08195564  0.10134298  0.31105260    -0.19100
C941        C  0.08977726  0.09354909  0.32975240     0.20100
C942        C  0.07932544  0.09791842  0.34870210     0.02200
C943        C  0.08748257  0.08913584  0.36706434    -0.13800
C944        C  0.10528425  0.07673330  0.36665168    -0.11500
C945        C  0.11573863  0.07269113  0.34803056     0.01800
C946        C  0.10789640  0.08122233  0.32960355    -0.23700
H947        H  0.02431058  0.13260303  0.37991753     0.09800
H948        H  0.05525848  0.11199358  0.38189494     0.13300
H949        H  0.02914035  0.13519977  0.31351011     0.12100
H950        H  0.05813404  0.11884408  0.29595948     0.13200
H951        H  0.08977261  0.09805061  0.29653569     0.12300
H952        H  0.08032596  0.09131068  0.38200248     0.09400
H953        H  0.11088330  0.07023142  0.38109261     0.12600
H954        H  0.11571234  0.07800583  0.31506187     0.14500
C955        C  0.98805215  0.21345124  0.29417029    -0.01000
C956        C  0.00941419  0.21579638  0.29052581    -0.09000
C957        C  0.01664681  0.22901063  0.27489899    -0.17900
C958        C  0.00262447  0.24072877  0.26271485     0.04500
C959        C  0.98099961  0.23891728  0.26716969     0.18700
C960        C  0.97393157  0.22502979  0.28242883    -0.19300
C961        C  0.96654615  0.25117657  0.25656581    -0.20600
C962        C  0.97309189  0.26540802  0.24174292    -0.19100
C963        C  0.99418364  0.26723099  0.23665430     0.20100
C964        C  0.00924101  0.25453322  0.24662615     0.02200
C965        C  0.03017950  0.25617334  0.23993652    -0.13800
C966        C  0.03597022  0.27048498  0.22463135    -0.11500
C967        C  0.02118374  0.28374165  0.21576612     0.01800
C968        C  0.00029476  0.28182153  0.22168103    -0.23700
H969        H  0.02059600  0.20712353  0.29962664     0.09800
H970        H  0.03328096  0.23005251  0.27299819     0.13300
H971        H  0.95740216  0.22359838  0.28554023     0.12100
H972        H  0.95007431  0.24999774  0.26000533     0.13200
H973        H  0.96153780  0.27495813  0.23407977     0.12300
H974        H  0.04237745  0.24652598  0.24614801     0.09400
H975        H  0.05217952  0.27157679  0.22013562     0.12600
H976        H  0.98869752  0.29177804  0.21459279     0.14500
C977        C  0.84776436  0.37404985  0.53107347    -0.01000
C978        C  0.86646311  0.37826590  0.54134517    -0.09000
C979        C  0.86682113  0.39156108  0.55850719    -0.17900
C980        C  0.84832196  0.40089583  0.56602026     0.04500
C981        C  0.82937781  0.39606405  0.55577511     0.18700
C982        C  0.82932198  0.38300986  0.53845017    -0.19300
C983        C  0.81048715  0.40412403  0.56294042    -0.20600
C984        C  0.80989062  0.41668711  0.58037349    -0.19100
C985        C  0.82822490  0.42189756  0.59078028     0.20100
C986        C  0.84778588  0.41451633  0.58349864     0.02200
C987        C  0.86588023  0.42116365  0.59402429    -0.13800
C988        C  0.86449032  0.43390612  0.61147886    -0.11500
C989        C  0.84509454  0.44027578  0.61912072     0.01800
C990        C  0.82705104  0.43440775  0.60853149    -0.23700
H991        H  0.88088342  0.37140061  0.53600915     0.09800
H992        H  0.88173619  0.39401877  0.56571818     0.13300
H993        H  0.81469818  0.37965439  0.53077401     0.12100
H994        H  0.79600483  0.40043802  0.55517025     0.13200
H995        H  0.79496875  0.42240738  0.58573148     0.12300
H996        H  0.88131044  0.41685358  0.58909543     0.09400
H997        H  0.87869670  0.43849366  0.61925089     0.12600
H998        H  0.81201086  0.43960970  0.61411333     0.14500
C999        C  0.88309633  0.29158531  0.44417260    -0.01000
C1000       C  0.89936708  0.28072275  0.45369938    -0.09000
C1001       C  0.91146355  0.26658486  0.44239002    -0.17900
C1002       C  0.90770176  0.26303512  0.42105090     0.04500
C1003       C  0.89143433  0.27453578  0.41148211     0.18700
C1004       C  0.87936927  0.28846339  0.42303453    -0.19300
C1005       C  0.88709770  0.27200111  0.39041615    -0.20600
C1006       C  0.89833073  0.25797562  0.37858974    -0.19100
C1007       C  0.91413241  0.24605662  0.38754270     0.20100
C1008       C  0.91923408  0.24843175  0.40884583     0.02200
C1009       C  0.93541566  0.23586056  0.41691524    -0.13800
C1010       C  0.94569042  0.22127634  0.40442406    -0.11500
C1011       C  0.94025593  0.21883200  0.38354356     0.01800
C1012       C  0.92462936  0.23151767  0.37523734    -0.23700
H1013       H  0.90255295  0.28291749  0.47002628     0.09800
H1014       H  0.92357415  0.25861903  0.45076307     0.13300
H1015       H  0.86695049  0.29696323  0.41545240     0.12100
H1016       H  0.87479676  0.28083061  0.38304499     0.13200
H1017       H  0.89445418  0.25626485  0.36233825     0.12300
H1018       H  0.94029517  0.23677153  0.43286071     0.09400
H1019       H  0.95776119  0.21171758  0.41120422     0.12600
H1020       H  0.92031127  0.22986690  0.35908247     0.14500
C1021       C  0.38238486  0.57813527  0.16501536    -0.01000
C1022       C  0.38827156  0.58696166  0.14601512    -0.09000
C1023       C  0.40427279  0.60167885  0.14493486    -0.17900
C1024       C  0.41516440  0.60790508  0.16292556     0.04500
C1025       C  0.40876898  0.59921100  0.18221278     0.18700
C1026       C  0.39248970  0.58463872  0.18308652    -0.19300
C1027       C  0.41894490  0.60475318  0.20052837    -0.20600
C1028       C  0.43573625  0.61832208  0.20011229    -0.19100
C1029       C  0.44282920  0.62668324  0.18136385     0.20100
C1030       C  0.43250192  0.62193353  0.16249309     0.02200
C1031       C  0.44042379  0.63098554  0.14405471    -0.13800
C1032       C  0.45845128  0.64329175  0.14429671    -0.11500
C1033       C  0.46902306  0.64713187  0.16287769     0.01800
C1034       C  0.46068648  0.63924015  0.18138829    -0.23700
H1035       H  0.38056378  0.58234755  0.13183017     0.09800
H1036       H  0.40797299  0.60764953  0.12976361     0.13300
H1037       H  0.38805026  0.57792359  0.19786469     0.12100
H1038       H  0.41410194  0.59826784  0.21527377     0.13200
H1039       H  0.44350506  0.62198559  0.21455259     0.12300
H1040       H  0.43332371  0.62844597  0.12915096     0.09400
H1041       H  0.46445172  0.64933071  0.12980301     0.12600
H1042       H  0.46857937  0.64224667  0.19592245     0.14500
C1043       C  0.21771163  0.48049027  0.29130230    -0.01000
C1044       C  0.23772288  0.48550110  0.29824190    -0.09000
C1045       C  0.25326471  0.49128221  0.28414010    -0.17900
C1046       C  0.24925628  0.49174543  0.26257076     0.04500
C1047       C  0.22921304  0.48538547  0.25570408     0.18700
C1048       C  0.21362438  0.48032569  0.27004418    -0.19300
C1049       C  0.22476675  0.48414016  0.23454684    -0.20600
C1050       C  0.23975491  0.48928979  0.21993807    -0.19100
C1051       C  0.25929982  0.49652780  0.22613728     0.20100
C1052       C  0.26430829  0.49818726  0.24752820     0.02200
C1053       C  0.28391159  0.50671995  0.25282424    -0.13800
C1054       C  0.29793188  0.51315353  0.23746278    -0.11500
C1055       C  0.29303524  0.51089166  0.21644352     0.01800
C1056       C  0.27373470  0.50245899  0.21095455    -0.23700
H1057       H  0.24119143  0.48550397  0.31466427     0.09800
H1058       H  0.26828170  0.49512192  0.29051712     0.13300
H1059       H  0.19823679  0.47602360  0.26462960     0.12100
H1060       H  0.20959909  0.47904836  0.22924750     0.13200
H1061       H  0.23586321  0.48803982  0.20364961     0.12300
H1062       H  0.28863564  0.50901511  0.26868186     0.09400
H1063       H  0.31274212  0.51973050  0.24204787     0.12600
H1064       H  0.26970104  0.50093155  0.19471188     0.14500
C1065       C  0.21401244  0.61866662  0.07249720    -0.01000
C1066       C  0.21968363  0.59928128  0.06444003    -0.09000
C1067       C  0.23398658  0.58661454  0.07489661    -0.17900
C1068       C  0.24302763  0.59301667  0.09385312     0.04500
C1069       C  0.23696860  0.61265573  0.10193007     0.18700
C1070       C  0.22274472  0.62516034  0.09126122    -0.19300
C1071       C  0.24512053  0.61983592  0.12066141    -0.20600
C1072       C  0.25926540  0.60795756  0.13166493    -0.19100
C1073       C  0.26575009  0.58867646  0.12413148     0.20100
C1074       C  0.25784516  0.58082208  0.10512780     0.02200
C1075       C  0.26531133  0.56126470  0.09831637    -0.13800
C1076       C  0.28013972  0.55019095  0.10985914    -0.11500
C1077       C  0.28781707  0.55818787  0.12853936     0.01800
C1078       C  0.28034363  0.57735455  0.13555630    -0.23700
H1079       H  0.21312098  0.59391739  0.04995322     0.09800
H1080       H  0.23765182  0.57191909  0.06780287     0.13300
H1081       H  0.21844913  0.64011141  0.09769033     0.12100
H1082       H  0.24051288  0.63477708  0.12687258     0.13200
H1083       H  0.26529613  0.61398066  0.14614203     0.12300
H1084       H  0.26012744  0.55424750  0.08407114     0.09400
H1085       H  0.28565031  0.53538676  0.10411742     0.12600
H1086       H  0.28615364  0.58375889  0.14996869     0.14500
C1087       C  0.34246343  0.85935087  0.03625418    -0.01000
C1088       C  0.36083033  0.86736928  0.04464808    -0.09000
C1089       C  0.36017329  0.88061459  0.06177693    -0.17900
C1090       C  0.34099372  0.88611130  0.07112787     0.04500
C1091       C  0.32249183  0.87735402  0.06283459     0.18700
C1092       C  0.32339102  0.86425771  0.04556020    -0.19300
C1093       C  0.30313566  0.88180067  0.07171431    -0.20600
C1094       C  0.30169691  0.89473823  0.08883412    -0.19100
C1095       C  0.31954227  0.90380890  0.09728449     0.20100
C1096       C  0.33944351  0.89986743  0.08841100     0.02200
C1097       C  0.35684823  0.91001155  0.09715468    -0.13800
C1098       C  0.35458796  0.92322940  0.11412135    -0.11500
C1099       C  0.33501272  0.92666836  0.12306326     0.01800
C1100       C  0.31755586  0.91689723  0.11455497    -0.23700
H1101       H  0.37572591  0.86381045  0.03763635     0.09800
H1102       H  0.37493501  0.88628933  0.06731043     0.13300
H1103       H  0.30908706  0.85798305  0.03920993     0.12100
H1104       H  0.28899605  0.87513707  0.06542818     0.13200
H1105       H  0.28648752  0.89776871  0.09544380     0.12300
H1106       H  0.37240077  0.90819553  0.09115788     0.09400
H1107       H  0.36832194  0.93067338  0.12039258     0.12600
H1108       H  0.30232511  0.91965239  0.12126170     0.14500
C1109       C  0.29219951  0.78179193  0.99227844    -0.01000
C1110       C  0.27291964  0.78903681  0.99924585    -0.09000
C1111       C  0.25765600  0.77518691  0.00612574    -0.17900
C1112       C  0.26109464  0.75349511  0.00577033     0.04500
C1113       C  0.28035091  0.74622604  0.99765339     0.18700
C1114       C  0.29583601  0.76036932  0.99149418    -0.19300
C1115       C  0.28399299  0.72490310  0.99563643    -0.20600
C1116       C  0.26886874  0.71059363  0.00143505    -0.19100
C1117       C  0.25004690  0.71723317  0.01010113     0.20100
C1118       C  0.24604150  0.73875470  0.01285612     0.02200
C1119       C  0.22728181  0.74451915  0.02283111    -0.13800
C1120       C  0.21287816  0.72953185  0.02921535    -0.11500
C1121       C  0.21658553  0.70842148  0.02566974     0.01800
C1122       C  0.23524185  0.70240618  0.01616156    -0.23700
H1123       H  0.26983417  0.80555961  0.99990236     0.09800
H1124       H  0.24322621  0.78190973  0.01135096     0.13300
H1125       H  0.31067336  0.75470848  0.98581030     0.12100
H1126       H  0.29854499  0.71925610  0.98928485     0.13200
H1127       H  0.27204115  0.69419317  0.99940067     0.12300
H1128       H  0.22344055  0.76045257  0.02618044     0.09400
H1129       H  0.19864816  0.73451943  0.03671227     0.12600
H1130       H  0.23838397  0.68605684  0.01365269     0.14500
C1131       C  0.52545669  0.63306113  0.84290331    -0.01000
C1132       C  0.53681740  0.63163712  0.82443243    -0.09000
C1133       C  0.55517330  0.62019248  0.82347141    -0.17900
C1134       C  0.56272779  0.60949538  0.84103746     0.04500
C1135       C  0.55083483  0.61052643  0.85963561     0.18700
C1136       C  0.53255658  0.62249866  0.86049477    -0.19300
C1137       C  0.55715946  0.59945470  0.87719521    -0.20600
C1138       C  0.57507040  0.58737780  0.87671494    -0.19100
C1139       C  0.58732661  0.58641102  0.85879637     0.20100
C1140       C  0.58150262  0.59764580  0.84075292     0.02200
C1141       C  0.59483033  0.59663898  0.82329358    -0.13800
C1142       C  0.61291772  0.58464894  0.82364450    -0.11500
C1143       C  0.61828479  0.57323473  0.84129617     0.01800
C1144       C  0.60544411  0.57426975  0.85884803    -0.23700
H1145       H  0.53154120  0.63955220  0.81057844     0.09800
H1146       H  0.56290780  0.61982008  0.80866209     0.13300
H1147       H  0.52363011  0.62325720  0.87474225     0.12100
H1148       H  0.54810897  0.60002086  0.89136337     0.13200
H1149       H  0.57946365  0.57885932  0.89052908     0.12300
H1150       H  0.59183617  0.60505619  0.80917592     0.09400
H1151       H  0.62265683  0.58418728  0.80994366     0.12600
H1152       H  0.60956695  0.56561023  0.87266820     0.14500
C1153       C  0.38256519  0.78348675  0.94655776    -0.01000
C1154       C  0.40320770  0.77937163  0.95219499    -0.09000
C1155       C  0.41515213  0.76504399  0.94091839    -0.17900
C1156       C  0.40661659  0.75433948  0.92371957     0.04500
C1157       C  0.38559328  0.75863202  0.91836160     0.18700
C1158       C  0.37396865  0.77299110  0.92966440    -0.19300
C1159       C  0.37611037  0.74863166  0.90166739    -0.20600
C1160       C  0.38708415  0.73443625  0.88991396    -0.19100
C1161       C  0.40780615  0.72988906  0.89457279     0.20100
C1162       C  0.41798523  0.73961460  0.91154333     0.02200
C1163       C  0.43900346  0.73415246  0.91536813    -0.13800
C1164       C  0.44941120  0.71983493  0.90264692    -0.11500
C1165       C  0.43919199  0.71061178  0.88582264     0.01800
C1166       C  0.41836741  0.71566873  0.88208933    -0.23700
H1167       H  0.41017198  0.78733168  0.96523555     0.09800
H1168       H  0.43095343  0.76266718  0.94596872     0.13300
H1169       H  0.35795599  0.77592695  0.92524710     0.12100
H1170       H  0.36006966  0.75186675  0.89760778     0.13200
H1171       H  0.37930254  0.72700488  0.87700112     0.12300
H1172       H  0.44777993  0.74076279  0.92796331     0.09400
H1173       H  0.46552818  0.71614333  0.90585839     0.12600
H1174       H  0.41023507  0.70857902  0.86918920     0.14500
C1175       C  0.79557840  0.29127391  0.49960201    -0.01000
C1176       C  0.80203718  0.27126205  0.50504986    -0.09000
C1177       C  0.78789957  0.25668564  0.51257865    -0.17900
C1178       C  0.76662456  0.26168866  0.51509386     0.04500
C1179       C  0.76021454  0.28226788  0.51025833     0.18700
C1180       C  0.77465462  0.29679091  0.50243622    -0.19300
C1181       C  0.73938539  0.28808095  0.51295419    -0.20600
C1182       C  0.72460367  0.27366620  0.51954907    -0.19100
C1183       C  0.73024762  0.25303405  0.52351064     0.20100
C1184       C  0.75143407  0.24685910  0.52168699     0.02200
C1185       C  0.75639682  0.22588921  0.52583745    -0.13800
C1186       C  0.74089959  0.21144948  0.53028866    -0.11500
C1187       C  0.71998415  0.21735023  0.53126797     0.01800
C1188       C  0.71476604  0.23832352  0.52856233    -0.23700
H1189       H  0.81814798  0.26668336  0.50315747     0.09800
H1190       H  0.79417817  0.24160605  0.51613827     0.13300
H1191       H  0.76962041  0.31239178  0.49858684     0.12100
H1192       H  0.73441257  0.30380187  0.50957746     0.13200
H1193       H  0.70854637  0.27857147  0.52106358     0.12300
H1194       H  0.77203041  0.21993205  0.52520686     0.09400
H1195       H  0.74532019  0.19538992  0.53268739     0.12600
H1196       H  0.69857767  0.24299303  0.52935205     0.14500
C1197       C  0.97560927  0.13607374  0.65859738    -0.01000
C1198       C  0.96800094  0.12860657  0.63972362    -0.09000
C1199       C  0.94944074  0.11720891  0.63904457    -0.17900
C1200       C  0.93786363  0.11315434  0.65733498     0.04500
C1201       C  0.94532817  0.12163709  0.67622847     0.18700
C1202       C  0.96400571  0.13279083  0.67667866    -0.19300
C1203       C  0.93431231  0.11871896  0.69470752    -0.20600
C1204       C  0.91616480  0.10706392  0.69500156    -0.19100
C1205       C  0.90873557  0.09783917  0.67686872     0.20100
C1206       C  0.91936257  0.10081787  0.65771610     0.02200
C1207       C  0.91125812  0.09088948  0.63995099    -0.13800
C1208       C  0.89368535  0.07820285  0.64129204    -0.11500
C1209       C  0.88355617  0.07505108  0.66028046     0.01800
C1210       C  0.89097187  0.08520939  0.67793270    -0.23700
H1211       H  0.97668283  0.13112076  0.62554399     0.09800
H1212       H  0.94464514  0.11169803  0.62403675     0.13300
H1213       H  0.96963320  0.13886632  0.69130770     0.12100
H1214       H  0.93989009  0.12533909  0.70910313     0.13200
H1215       H  0.90809884  0.10491984  0.70960905     0.12300
H1216       H  0.91836816  0.09227169  0.62488888     0.09400
H1217       H  0.88823150  0.07051564  0.62740026     0.12600
H1218       H  0.88321773  0.08286743  0.69268605     0.14500
C1219       C  0.71612535  0.12345235  0.56793296    -0.01000
C1220       C  0.72521567  0.10645538  0.55783500    -0.09000
C1221       C  0.73881249  0.09310541  0.56842958    -0.17900
C1222       C  0.74374378  0.09640765  0.58956567     0.04500
C1223       C  0.73448883  0.11377884  0.59957819     0.18700
C1224       C  0.72091911  0.12694006  0.58880171    -0.19300
C1225       C  0.73884054  0.11807752  0.62034713    -0.20600
C1226       C  0.75236448  0.10559548  0.63148195    -0.19100
C1227       C  0.76181244  0.08842522  0.62217152     0.20100
C1228       C  0.75759132  0.08335819  0.60115670     0.02200
C1229       C  0.76752551  0.06556579  0.59281626    -0.13800
C1230       C  0.78144835  0.05373430  0.60474661    -0.11500
C1231       C  0.78585920  0.05925438  0.62527864     0.01800
C1232       C  0.77570108  0.07646628  0.63386076    -0.23700
H1233       H  0.72184986  0.10348052  0.54167001     0.09800
H1234       H  0.74529110  0.08040703  0.55968362     0.13300
H1235       H  0.71406248  0.14006754  0.59679688     0.12100
H1236       H  0.73181594  0.13129419  0.62802909     0.13200
H1237       H  0.75552332  0.10946491  0.64751600     0.12300
H1238       H  0.76495805  0.06053160  0.57710284     0.09400
H1239       H  0.78904847  0.04046486  0.59776791     0.12600
H1240       H  0.77883102  0.08084723  0.64977719     0.14500
C1241       C  0.51508266  0.78626964  0.71717318    -0.01000
C1242       C  0.53009283  0.77249110  0.72472640    -0.09000
C1243       C  0.52460993  0.75681818  0.73874172    -0.17900
C1244       C  0.50374622  0.75426267  0.74538426     0.04500
C1245       C  0.48836443  0.76726769  0.73637751     0.18700
C1246       C  0.49418297  0.78332239  0.72277423    -0.19300
C1247       C  0.46730561  0.76430689  0.74116959    -0.20600
C1248       C  0.46120465  0.74895020  0.75510808    -0.19100
C1249       C  0.47606992  0.73674110  0.76524023     0.20100
C1250       C  0.49759633  0.73941435  0.76070708     0.02200
C1251       C  0.51208778  0.72774875  0.77233774    -0.13800
C1252       C  0.50549224  0.71414170  0.78784839    -0.11500
C1253       C  0.48429593  0.71123995  0.79197313     0.01800
C1254       C  0.46960490  0.72232457  0.78037153    -0.23700
H1255       H  0.54625177  0.77420854  0.72024205     0.09800
H1256       H  0.53700557  0.74686708  0.74401064     0.13300
H1257       H  0.48237831  0.79356213  0.71647325     0.12100
H1258       H  0.45546068  0.77395937  0.73409904     0.13200
H1259       H  0.44478550  0.74706130  0.75847645     0.12300
H1260       H  0.52865961  0.72932314  0.77030288     0.09400
H1261       H  0.51711035  0.70574711  0.79666434     0.12600
H1262       H  0.45317966  0.72034729  0.78370617     0.14500
C1263       C  0.66182232  0.86020588  0.97200272    -0.01000
C1264       C  0.64273869  0.86665887  0.96378736    -0.09000
C1265       C  0.64205895  0.87851900  0.94555906    -0.17900
C1266       C  0.66057787  0.88417539  0.93496470     0.04500
C1267       C  0.67977479  0.87700958  0.94319637     0.18700
C1268       C  0.68018905  0.86522731  0.96142817    -0.19300
C1269       C  0.69859169  0.88193424  0.93344706    -0.20600
C1270       C  0.69889339  0.89432392  0.91585758    -0.19100
C1271       C  0.68037854  0.90207247  0.90754946     0.20100
C1272       C  0.66089803  0.89694060  0.91678353     0.02200
C1273       C  0.64270659  0.90513826  0.90759069    -0.13800
C1274       C  0.64390748  0.91836123  0.89043349    -0.11500
C1275       C  0.66318350  0.92375554  0.88176296     0.01800
C1276       C  0.68132725  0.91526087  0.89022568    -0.23700
H1277       H  0.62834655  0.86296722  0.97173395     0.09800
H1278       H  0.62686930  0.88322942  0.94030394     0.13300
H1279       H  0.69503363  0.86011533  0.96757415     0.12100
H1280       H  0.71324378  0.87638773  0.93964494     0.13200
H1281       H  0.71376215  0.89808606  0.90884624     0.12300
H1282       H  0.62734998  0.90184363  0.91345073     0.09400
H1283       H  0.62962417  0.92460154  0.88407595     0.12600
H1284       H  0.69631454  0.91929297  0.88360565     0.14500
C1285       C  0.71764298  0.98417393  0.79064273    -0.01000
C1286       C  0.72875497  0.96838842  0.78070500    -0.09000
C1287       C  0.74450637  0.97315851  0.76652396    -0.17900
C1288       C  0.74984833  0.99403012  0.76203543     0.04500
C1289       C  0.73889117  0.00995872  0.77268021     0.18700
C1290       C  0.72283693  0.00492302  0.78660027    -0.19300
C1291       C  0.74389886  0.03084261  0.76927143    -0.20600
C1292       C  0.75932926  0.03633912  0.75517927    -0.19100
C1293       C  0.76993756  0.02110476  0.74391103     0.20100
C1294       C  0.76542969  0.99970485  0.74722390     0.02200
C1295       C  0.77634453  0.98497534  0.73516217    -0.13800
C1296       C  0.79043114  0.99126513  0.71992827    -0.11500
C1297       C  0.79448099  0.01234113  0.71645136     0.01800
C1298       C  0.78460325  0.02718392  0.72887558    -0.23700
H1299       H  0.72496903  0.95224694  0.78360082     0.09800
H1300       H  0.75218834  0.96015196  0.75936258     0.13300
H1301       H  0.71441016  0.01722114  0.79442140     0.12100
H1302       H  0.73571876  0.04304040  0.77747517     0.13200
H1303       H  0.76269917  0.05265981  0.75277609     0.12300
H1304       H  0.77397168  0.96848963  0.73672117     0.09400
H1305       H  0.79806268  0.97952087  0.71062840     0.12600
H1306       H  0.78763273  0.04353991  0.72620670     0.14500
C1307       C  0.62450177  0.94381265  0.78514026    -0.01000
C1308       C  0.60336522  0.94871454  0.78300402    -0.09000
C1309       C  0.59078175  0.93785267  0.76889296    -0.17900
C1310       C  0.59902456  0.92159615  0.75655719     0.04500
C1311       C  0.62061446  0.91720624  0.75848754     0.18700
C1312       C  0.63299226  0.92831003  0.77247527    -0.19300
C1313       C  0.62977370  0.90136772  0.74682719    -0.20600
C1314       C  0.61784039  0.88922836  0.73368627    -0.19100
C1315       C  0.59645942  0.89270619  0.73174560     0.20100
C1316       C  0.58671238  0.90916634  0.74277929     0.02200
C1317       C  0.56508028  0.91210873  0.73972958    -0.13800
C1318       C  0.55361396  0.89887345  0.72676762    -0.11500
C1319       C  0.56327461  0.88226926  0.71655572     0.01800
C1320       C  0.58476385  0.87952189  0.71897410    -0.23700
H1321       H  0.59643700  0.96068162  0.79254958     0.09800
H1322       H  0.57460769  0.94222473  0.76826115     0.13300
H1323       H  0.64935714  0.92443981  0.77382917     0.12100
H1324       H  0.64625611  0.89806772  0.74817777     0.13200
H1325       H  0.62536808  0.87683193  0.72516128     0.12300
H1326       H  0.55659623  0.92440863  0.74725798     0.09400
H1327       H  0.53706120  0.90145602  0.72499248     0.12600
H1328       H  0.59249920  0.86693113  0.71091151     0.14500
C1329       C  0.86757351  0.66142698  0.02989208    -0.01000
C1330       C  0.87189625  0.68075248  0.03886447    -0.09000
C1331       C  0.88204982  0.68219698  0.05784404    -0.17900
C1332       C  0.88853753  0.66422032  0.06857370     0.04500
C1333       C  0.88395488  0.64455927  0.05957649     0.18700
C1334       C  0.87335932  0.64332072  0.04049390    -0.19300
C1335       C  0.89036131  0.62630476  0.06948385    -0.20600
C1336       C  0.90166878  0.62715300  0.08784551    -0.19100
C1337       C  0.90668109  0.64627153  0.09688593     0.20100
C1338       C  0.89983627  0.66508715  0.08761794     0.02200
C1339       C  0.90489102  0.68395837  0.09767607    -0.13800
C1340       C  0.91687897  0.68414597  0.11569023    -0.11500
C1341       C  0.92425979  0.66562809  0.12429615     0.01800
C1342       C  0.91881956  0.64670788  0.11498513    -0.23700
H1343       H  0.86748130  0.69499864  0.03108495     0.09800
H1344       H  0.88489013  0.69767754  0.06347228     0.13300
H1345       H  0.87013452  0.62829803  0.03363860     0.12100
H1346       H  0.88690931  0.61126273  0.06280008     0.13200
H1347       H  0.90670581  0.61274010  0.09492658     0.12300
H1348       H  0.89997107  0.69889149  0.09197351     0.09400
H1349       H  0.92075332  0.69893869  0.12266950     0.12600
H1350       H  0.92427491  0.63225443  0.12168591     0.14500
C1351       C  0.11900285  0.66303167  0.08442358    -0.01000
C1352       C  0.11164210  0.68195765  0.09209112    -0.09000
C1353       C  0.09362215  0.68273803  0.10414612    -0.17900
C1354       C  0.08235061  0.66445924  0.10897840     0.04500
C1355       C  0.09036984  0.64520415  0.10181614     0.18700
C1356       C  0.10843919  0.64467768  0.08958861    -0.19300
C1357       C  0.08021333  0.62659638  0.10673242    -0.20600
C1358       C  0.06212111  0.62667765  0.11856998    -0.19100
C1359       C  0.05354220  0.64539596  0.12548577     0.20100
C1360       C  0.06343558  0.66458128  0.12061197     0.02200
C1361       C  0.05376590  0.68308576  0.12729494    -0.13800
C1362       C  0.03522682  0.68255219  0.13846088    -0.11500
C1363       C  0.02569894  0.66364969  0.14354455     0.01800
C1364       C  0.03497108  0.64507886  0.13706191    -0.23700
H1365       H  0.11963349  0.69632373  0.08844413     0.09800
H1366       H  0.08896339  0.69789363  0.10942496     0.13300
H1367       H  0.11417989  0.62991023  0.08391185     0.12100
H1368       H  0.08631496  0.61185712  0.10138771     0.13200
H1369       H  0.05465661  0.61200510  0.12214138     0.12300
H1370       H  0.05993575  0.69826676  0.12391452     0.09400
H1371       H  0.02831636  0.69714172  0.14317869     0.12600
H1372       H  0.02754864  0.63039486  0.14070705     0.14500
C1373       C  0.84046414  0.47112124  0.36357369    -0.01000
C1374       C  0.85953899  0.46124466  0.36707227    -0.09000
C1375       C  0.86046817  0.44282494  0.37859592    -0.17900
C1376       C  0.84221233  0.43373277  0.38700445     0.04500
C1377       C  0.82287311  0.44347974  0.38264235     0.18700
C1378       C  0.82219831  0.46187808  0.37106355    -0.19300
C1379       C  0.80427650  0.43513478  0.39027680    -0.20600
C1380       C  0.80444680  0.41758304  0.40276793    -0.19100
C1381       C  0.82322561  0.40798354  0.40800715     0.20100
C1382       C  0.84239374  0.41571255  0.40000225     0.02200
C1383       C  0.86088696  0.40542341  0.40591670    -0.13800
C1384       C  0.86039925  0.38885682  0.41990357    -0.11500
C1385       C  0.84152022  0.38174837  0.42819051     0.01800
C1386       C  0.82295177  0.39104316  0.42174265    -0.23700
H1387       H  0.87384774  0.46803037  0.36130799     0.09800
H1388       H  0.87571415  0.43626319  0.38090800     0.13300
H1389       H  0.80731000  0.46926803  0.36821515     0.12100
H1390       H  0.78948849  0.44245456  0.38685126     0.13200
H1391       H  0.78979619  0.41172633  0.40872947     0.12300
H1392       H  0.87601475  0.41009684  0.40038806     0.09400
H1393       H  0.87495590  0.38172941  0.42446861     0.12600
H1394       H  0.80827747  0.38561474  0.42806739     0.14500
C1395       C  0.93507984  0.62502740  0.21987556    -0.01000
C1396       C  0.94488539  0.60841255  0.22993124    -0.09000
C1397       C  0.93400799  0.59618897  0.24431398    -0.17900
C1398       C  0.91285481  0.60023619  0.24902601     0.04500
C1399       C  0.90307026  0.61708248  0.23862508     0.18700
C1400       C  0.91416074  0.62917707  0.22433177    -0.19300
C1401       C  0.88221639  0.62187812  0.24251249    -0.20600
C1402       C  0.87073059  0.61030168  0.25657368    -0.19100
C1403       C  0.87980382  0.59362902  0.26709881     0.20100
C1404       C  0.90098161  0.58827043  0.26356610     0.02200
C1405       C  0.90918584  0.57116933  0.27470974    -0.13800
C1406       C  0.89678141  0.55984235  0.28857951    -0.11500
C1407       C  0.87593171  0.56526587  0.29187242     0.01800
C1408       C  0.86765013  0.58224278  0.28111190    -0.23700
H1409       H  0.96106905  0.60493293  0.22678979     0.09800
H1410       H  0.94255973  0.58372516  0.25149865     0.13300
H1411       H  0.90637831  0.64197288  0.21662860     0.12100
H1412       H  0.87470986  0.63470106  0.23460298     0.13200
H1413       H  0.85459095  0.61441616  0.25921596     0.12300
H1414       H  0.92508441  0.56614002  0.27298790     0.09400
H1415       H  0.90355346  0.54681553  0.29677893     0.12600
H1416       H  0.85151783  0.58657128  0.28349975     0.14500
C1417       C  0.13679555  0.97190909  0.35272866    -0.01000
C1418       C  0.13419944  0.96048811  0.37101506    -0.09000
C1419       C  0.12228505  0.94225140  0.37113743    -0.17900
C1420       C  0.11259615  0.93488233  0.35283644     0.04500
C1421       C  0.11588960  0.94627939  0.33424957     0.18700
C1422       C  0.12781057  0.96448893  0.33438472    -0.19300
C1423       C  0.10707901  0.93962647  0.31558969    -0.20600
C1424       C  0.09486117  0.92187797  0.31493490    -0.19100
C1425       C  0.09096654  0.91045387  0.33296039     0.20100
C1426       C  0.09965992  0.91678529  0.35222984     0.02200
C1427       C  0.09464295  0.90493571  0.37002697    -0.13800
C1428       C  0.08137845  0.88775454  0.36871643    -0.11500
C1429       C  0.07300180  0.88159598  0.34964904     0.01800
C1430       C  0.07806776  0.89289975  0.33182138    -0.23700
H1431       H  0.14113175  0.96582422  0.38534120     0.09800
H1432       H  0.12088208  0.93431847  0.38578550     0.13300
H1433       H  0.12990803  0.97306281  0.32005625     0.12100
H1434       H  0.10960084  0.94826514  0.30137869     0.13200
H1435       H  0.08821046  0.91718069  0.30023993     0.12300
H1436       H  0.10040637  0.90876936  0.38522379     0.09400
H1437       H  0.07759312  0.87927866  0.38273282     0.12600
H1438       H  0.07139890  0.88840873  0.31705865     0.14500
C1439       C  0.98019944  0.71495005  0.22167940    -0.01000
C1440       C  0.98391717  0.70859190  0.24206562    -0.09000
C1441       C  0.98888558  0.72293332  0.25738021    -0.17900
C1442       C  0.99068800  0.74430211  0.25273785     0.04500
C1443       C  0.98760171  0.75070610  0.23186844     0.18700
C1444       C  0.98189356  0.73608953  0.21663619    -0.19300
C1445       C  0.99068454  0.77153768  0.22634072    -0.20600
C1446       C  0.99715505  0.78603136  0.24103247    -0.19100
C1447       C  0.99991163  0.78023213  0.26178551     0.20100
C1448       C  0.99600604  0.75939743  0.26800702     0.02200
C1449       C  0.99736950  0.75456169  0.28931962    -0.13800
C1450       C  0.00314607  0.76954333  0.30371895    -0.11500
C1451       C  0.00807512  0.78975503  0.29746791     0.01800
C1452       C  0.00638810  0.79510223  0.27645636    -0.23700
H1453       H  0.98289776  0.69232547  0.24626692     0.09800
H1454       H  0.99181248  0.71667116  0.27258228     0.13300
H1455       H  0.97945234  0.74104115  0.20076032     0.12100
H1456       H  0.98850511  0.77656722  0.21045956     0.13200
H1457       H  0.99982930  0.80192434  0.23616816     0.12300
H1458       H  0.99367284  0.73943999  0.29545813     0.09400
H1459       H  0.00403774  0.76516895  0.31991395     0.12600
H1460       H  0.00967047  0.81090072  0.27162407     0.14500
C1461       C  0.16271472  0.61853778  0.42784713    -0.01000
C1462       C  0.18170492  0.61177530  0.41967829    -0.09000
C1463       C  0.18263473  0.59419664  0.40707277    -0.17900
C1464       C  0.16443895  0.58283533  0.40212728     0.04500
C1465       C  0.14509389  0.59036365  0.40968945     0.18700
C1466       C  0.14443754  0.60787553  0.42260193    -0.19300
C1467       C  0.12651876  0.58032325  0.40440319    -0.20600
C1468       C  0.12673032  0.56276900  0.39188579    -0.19100
C1469       C  0.14556253  0.55448324  0.38481916     0.20100
C1470       C  0.16472032  0.56428192  0.39002437     0.02200
C1471       C  0.18335110  0.55475424  0.38337136    -0.13800
C1472       C  0.18295688  0.53632150  0.37209878    -0.11500
C1473       C  0.16406905  0.52686779  0.36675972     0.01800
C1474       C  0.14538754  0.53615921  0.37296530    -0.23700
H1475       H  0.19599332  0.61992562  0.42330171     0.09800
H1476       H  0.19781109  0.58998879  0.40135632     0.13300
H1477       H  0.12960521  0.61323075  0.42857566     0.12100
H1478       H  0.11170113  0.58610643  0.40997440     0.13200
H1479       H  0.11207814  0.55537767  0.38805093     0.12300
H1480       H  0.19851393  0.56085645  0.38704989     0.09400
H1481       H  0.19762213  0.52939078  0.36755420     0.12600
H1482       H  0.13072224  0.52877792  0.36912430     0.14500
C1483       C  0.05219555  0.78288288  0.38365960    -0.01000
C1484       C  0.06283418  0.76741539  0.37273078    -0.09000
C1485       C  0.07325448  0.75156399  0.38305030    -0.17900
C1486       C  0.07379302  0.75079103  0.40491531     0.04500
C1487       C  0.06201906  0.76580267  0.41604979     0.18700
C1488       C  0.05120901  0.78161954  0.40535742    -0.19300
C1489       C  0.06168244  0.76525818  0.43775487    -0.20600
C1490       C  0.07346211  0.75068799  0.44862885    -0.19100
C1491       C  0.08607072  0.73642160  0.43809368     0.20100
C1492       C  0.08614931  0.73609678  0.41605422     0.02200
C1493       C  0.09931241  0.72165737  0.40606778    -0.13800
C1494       C  0.11246181  0.70878190  0.41738547    -0.11500
C1495       C  0.11285174  0.70947490  0.43905370     0.01800
C1496       C  0.09918022  0.72295744  0.44939364    -0.23700
H1497       H  0.06334222  0.76768424  0.35594940     0.09800
H1498       H  0.08102687  0.74038388  0.37337291     0.13300
H1499       H  0.04277664  0.79338564  0.41393427     0.12100
H1500       H  0.05258020  0.77645548  0.44639940     0.13200
H1501       H  0.07316203  0.75097144  0.46541579     0.12300
H1502       H  0.10032123  0.72025767  0.38947788     0.09400
H1503       H  0.12264875  0.69834247  0.40900490     0.12600
H1504       H  0.09934052  0.72357610  0.46617907     0.14500
C1505       C  0.14229279  0.02535109  0.67024531    -0.01000
C1506       C  0.13419063  0.03264573  0.68906680    -0.09000
C1507       C  0.12188928  0.05050206  0.68980893    -0.17900
C1508       C  0.11699966  0.06164732  0.67157228     0.04500
C1509       C  0.12506264  0.05405814  0.65247147     0.18700
C1510       C  0.13780099  0.03627741  0.65201428    -0.19300
C1511       C  0.12006721  0.06404633  0.63386993    -0.20600
C1512       C  0.10701076  0.08125050  0.63374476    -0.19100
C1513       C  0.09896255  0.08921201  0.65226221     0.20100
C1514       C  0.10411016  0.07978258  0.67151227     0.02200
C1515       C  0.09611464  0.08895623  0.68979500    -0.13800
C1516       C  0.08316519  0.10639192  0.68889938    -0.11500
C1517       C  0.07767029  0.11523694  0.66983514     0.01800
C1518       C  0.08575135  0.10658751  0.65159105    -0.23700
H1519       H  0.13734430  0.02446239  0.70339848     0.09800
H1520       H  0.11614067  0.05495253  0.70484685     0.13300
H1521       H  0.14380525  0.03064645  0.63735588     0.12100
H1522       H  0.12607377  0.05833247  0.61925263     0.13200
H1523       H  0.10322937  0.08843323  0.61902737     0.12300
H1524       H  0.09966403  0.08310189  0.70503070     0.09400
H1525       H  0.07727519  0.11286470  0.70323299     0.12600
H1526       H  0.08176749  0.11341489  0.63675067     0.14500
C1527       C  0.38231424  0.83206654  0.57907804    -0.01000
C1528       C  0.38946908  0.81386196  0.58854282    -0.09000
C1529       C  0.40614397  0.81445118  0.60245308    -0.17900
C1530       C  0.41623814  0.83340814  0.60732769     0.04500
C1531       C  0.40858560  0.85184864  0.59795809     0.18700
C1532       C  0.39184431  0.85100796  0.58406345    -0.19300
C1533       C  0.41785135  0.87104407  0.60225019    -0.20600
C1534       C  0.43494239  0.87233390  0.61535468    -0.19100
C1535       C  0.44323381  0.85445125  0.62446970     0.20100
C1536       C  0.43386334  0.83473848  0.62077886     0.02200
C1537       C  0.44287373  0.81717478  0.63032811    -0.13800
C1538       C  0.46090892  0.81898180  0.64216390    -0.11500
C1539       C  0.47044015  0.83830421  0.64522771     0.01800
C1540       C  0.46121672  0.85608940  0.63680412    -0.23700
H1541       H  0.38229425  0.79905651  0.58502931     0.09800
H1542       H  0.41084667  0.79978487  0.60897251     0.13300
H1543       H  0.38633275  0.86523640  0.57694193     0.12100
H1544       H  0.41198828  0.88516205  0.59520674     0.13200
H1545       H  0.44192802  0.88739965  0.61811792     0.12300
H1546       H  0.43663922  0.80174494  0.62862024     0.09400
H1547       H  0.46761596  0.80503653  0.64877073     0.12600
H1548       H  0.46852238  0.87109150  0.63911525     0.14500
C1549       C  0.36365220  0.84095671  0.47478002    -0.01000
C1550       C  0.37058193  0.86026722  0.46752972    -0.09000
C1551       C  0.38189261  0.86179038  0.44901802    -0.17900
C1552       C  0.38661092  0.84391238  0.43711639     0.04500
C1553       C  0.37906290  0.82446339  0.44437152     0.18700
C1554       C  0.36778728  0.82318715  0.46295417    -0.19300
C1555       C  0.38309688  0.80626636  0.43325262    -0.20600
C1556       C  0.39502743  0.80680589  0.41531186    -0.19100
C1557       C  0.40326605  0.82555272  0.40803780     0.20100
C1558       C  0.39892396  0.84446038  0.41860745     0.02200
C1559       C  0.40755688  0.86294484  0.41043723    -0.13800
C1560       C  0.42075231  0.86247924  0.39320939    -0.11500
C1561       C  0.42558977  0.84369648  0.38335241     0.01800
C1562       C  0.41632010  0.82536952  0.39053964    -0.23700
H1563       H  0.36755468  0.87422597  0.47637426     0.09800
H1564       H  0.38692210  0.87712812  0.44457231     0.13300
H1565       H  0.36236762  0.80816547  0.46833894     0.12100
H1566       H  0.37724503  0.79142353  0.43865537     0.13200
H1567       H  0.39815309  0.79237320  0.40727166     0.12300
H1568       H  0.40474212  0.87795503  0.41723809     0.09400
H1569       H  0.42744531  0.87692952  0.38774894     0.12600
H1570       H  0.41983342  0.81078221  0.38293013     0.14500
C1571       C  0.28691853  0.78538295  0.51705097    -0.01000
C1572       C  0.29240118  0.76453888  0.51428262    -0.09000
C1573       C  0.27772493  0.75012945  0.50720993    -0.17900
C1574       C  0.25695686  0.75617874  0.50304744     0.04500
C1575       C  0.25134066  0.77715672  0.50694614     0.18700
C1576       C  0.26634151  0.79151938  0.51344933    -0.19300
C1577       C  0.23074465  0.78371023  0.50447247    -0.20600
C1578       C  0.21544595  0.76978422  0.49839194    -0.19100
C1579       C  0.22053516  0.74918288  0.49383265     0.20100
C1580       C  0.24145563  0.74218135  0.49551426     0.02200
C1581       C  0.24592122  0.72159382  0.48931451    -0.13800
C1582       C  0.23010240  0.70833743  0.48251672    -0.11500
C1583       C  0.20939141  0.71505491  0.48202342     0.01800
C1584       C  0.20475698  0.73553487  0.48755767    -0.23700
H1585       H  0.30819368  0.75944398  0.51718046     0.09800
H1586       H  0.28298106  0.73434059  0.50542569     0.13300
H1587       H  0.26189778  0.80756869  0.51595250     0.12100
H1588       H  0.22637083  0.79965978  0.50757468     0.13200
H1589       H  0.19955698  0.77524035  0.49698261     0.12300
H1590       H  0.26149652  0.71539248  0.48935218     0.09400
H1591       H  0.23402386  0.69257496  0.47817198     0.12600
H1592       H  0.18877887  0.74091142  0.48689429     0.14500
C1593       C  0.28736350  0.87281493  0.56655726    -0.01000
C1594       C  0.28326817  0.89327770  0.56041672    -0.09000
C1595       C  0.26958333  0.90579100  0.57180059    -0.17900
C1596       C  0.25946721  0.89814635  0.58977584     0.04500
C1597       C  0.26336161  0.87719194  0.59559128     0.18700
C1598       C  0.27714856  0.86486418  0.58405845    -0.19300
C1599       C  0.25364829  0.86864586  0.61303717    -0.20600
C1600       C  0.24035177  0.88054891  0.62512037    -0.19100
C1601       C  0.23644500  0.90132809  0.62010207     0.20100
C1602       C  0.24579859  0.91046768  0.60230714     0.02200
C1603       C  0.24117521  0.93155618  0.59805004    -0.13800
C1604       C  0.22798144  0.94303916  0.61100705    -0.11500
C1605       C  0.21900660  0.93396299  0.62861800     0.01800
C1606       C  0.22329176  0.91304133  0.63295226    -0.23700
H1607       H  0.29088182  0.89975517  0.54689209     0.09800
H1608       H  0.26733851  0.92140524  0.56621853     0.13300
H1609       H  0.28003830  0.84898353  0.58886712     0.12100
H1610       H  0.25647672  0.85265431  0.61747263     0.13200
H1611       H  0.23319348  0.87347952  0.63861339     0.12300
H1612       H  0.24759767  0.93964459  0.58488737     0.09400
H1613       H  0.22491473  0.95915196  0.60728831     0.12600
H1614       H  0.21637677  0.90577186  0.64647488     0.14500
C1615       C  0.34620547  0.96822796  0.87052166    -0.01000
C1616       C  0.32718534  0.95794833  0.87336696    -0.09000
C1617       C  0.32593827  0.93967862  0.88488000    -0.17900
C1618       C  0.34377487  0.93103586  0.89429109     0.04500
C1619       C  0.36324303  0.94100296  0.89071699     0.18700
C1620       C  0.36431824  0.95936640  0.87880300    -0.19300
C1621       C  0.38140513  0.93286060  0.89950616    -0.20600
C1622       C  0.38058367  0.91540052  0.91223556    -0.19100
C1623       C  0.36157741  0.90562150  0.91652630     0.20100
C1624       C  0.34290921  0.91314228  0.90742939     0.02200
C1625       C  0.32413230  0.90265835  0.91223788    -0.13800
C1626       C  0.32389548  0.88560902  0.92561739    -0.11500
C1627       C  0.34225846  0.87841699  0.93474630     0.01800
C1628       C  0.36108497  0.88847510  0.93006141    -0.23700
H1629       H  0.31298271  0.96425947  0.86689417     0.09800
H1630       H  0.31066904  0.93292770  0.88638142     0.13300
H1631       H  0.37913062  0.96714123  0.87661464     0.12100
H1632       H  0.39632333  0.94023497  0.89677077     0.13200
H1633       H  0.39490313  0.90966418  0.91900121     0.12300
H1634       H  0.30928237  0.90730984  0.90606121     0.09400
H1635       H  0.30916556  0.87815000  0.92900938     0.12600
H1636       H  0.37542528  0.88297651  0.93699906     0.14500
C1637       C  0.29329034  0.01899460  0.79665998    -0.01000
C1638       C  0.27308004  0.01403815  0.80315130    -0.09000
C1639       C  0.25796245  0.00782382  0.78878806    -0.17900
C1640       C  0.26259996  0.00667920  0.76735388     0.04500
C1641       C  0.28281576  0.01293065  0.76085123     0.18700
C1642       C  0.29791881  0.01866662  0.77545928    -0.19300
C1643       C  0.28798321  0.01321586  0.73979729    -0.20600
C1644       C  0.27359281  0.00714720  0.72496837    -0.19100
C1645       C  0.25386286  0.00007864  0.73084749     0.20100
C1646       C  0.24806424  0.99952958  0.75211841     0.02200
C1647       C  0.22820269  0.99138469  0.75713536    -0.13800
C1648       C  0.21472577  0.98421183  0.74164738    -0.11500
C1649       C  0.22044356  0.98521265  0.72071144     0.01800
C1650       C  0.24001035  0.99328310  0.71548540    -0.23700
H1651       H  0.26913001  0.01431539  0.81946883     0.09800
H1652       H  0.24281371  0.00400627  0.79489125     0.13300
H1653       H  0.31344403  0.02281753  0.77029174     0.12100
H1654       H  0.30329642  0.01817058  0.73474757     0.13200
H1655       H  0.27808790  0.00759495  0.70878133     0.12300
H1656       H  0.22279949  0.99005866  0.77289779     0.09400
H1657       H  0.19966133  0.97807868  0.74606953     0.12600
H1658       H  0.24464945  0.99400258  0.69933785     0.14500
C1659       C  0.42582583  0.16130446  0.62339199    -0.01000
C1660       C  0.41696528  0.18007805  0.61697277    -0.09000
C1661       C  0.40393875  0.18082298  0.59967964    -0.17900
C1662       C  0.39938727  0.16268094  0.58815612     0.04500
C1663       C  0.40790294  0.14356979  0.59517260     0.18700
C1664       C  0.42097234  0.14306899  0.61257066    -0.19300
C1665       C  0.40360097  0.12508816  0.58461319    -0.20600
C1666       C  0.39129639  0.12518683  0.56692000    -0.19100
C1667       C  0.38316948  0.14380157  0.55922085     0.20100
C1668       C  0.38702590  0.16282931  0.56976786     0.02200
C1669       C  0.37881236  0.18124071  0.56111388    -0.13800
C1670       C  0.36783106  0.18083467  0.54252292    -0.11500
C1671       C  0.36429576  0.16211924  0.53208747     0.01800
C1672       C  0.37164141  0.14357782  0.54071230    -0.23700
H1673       H  0.42034560  0.19434639  0.62517910     0.09800
H1674       H  0.39781180  0.19586707  0.59568585     0.13300
H1675       H  0.42761465  0.12840942  0.61753284     0.12100
H1676       H  0.40996187  0.11045436  0.58997523     0.13200
H1677       H  0.38842385  0.11063961  0.55899270     0.12300
H1678       H  0.38097019  0.19628794  0.56805307     0.09400
H1679       H  0.36216839  0.19535686  0.53618711     0.12600
H1680       H  0.36905223  0.12905842  0.53261900     0.14500
C1681       C  0.52990697  0.15474259  0.64174790    -0.01000
C1682       C  0.53480085  0.13801668  0.62881957    -0.09000
C1683       C  0.55263631  0.13848871  0.61636234    -0.17900
C1684       C  0.56625997  0.15580302  0.61653363     0.04500
C1685       C  0.56131228  0.17258403  0.62994728     0.18700
C1686       C  0.54336377  0.17188208  0.64234437    -0.19300
C1687       C  0.57409060  0.19017576  0.63067283    -0.20600
C1688       C  0.59154516  0.19169789  0.61804404    -0.19100
C1689       C  0.59679900  0.17557722  0.60451548     0.20100
C1690       C  0.58441339  0.15725679  0.60373322     0.02200
C1691       C  0.59074011  0.14127643  0.59011358    -0.13800
C1692       C  0.60835923  0.14355939  0.57761843    -0.11500
C1693       C  0.62026334  0.16180046  0.57816209     0.01800
C1694       C  0.61440296  0.17772081  0.59172797    -0.23700
H1695       H  0.52451598  0.12471507  0.62793100     0.09800
H1696       H  0.55514604  0.12520000  0.60655335     0.13300
H1697       H  0.53969479  0.18492637  0.65231081     0.12100
H1698       H  0.57041580  0.20298568  0.64091757     0.13200
H1699       H  0.60097808  0.20563387  0.61882467     0.12300
H1700       H  0.58243914  0.12680121  0.58876605     0.09400
H1701       H  0.61260869  0.13095165  0.56736284     0.12600
H1702       H  0.62358665  0.19183702  0.59238029     0.14500
C1703       C  0.44076787  0.11962885  0.72152015    -0.01000
C1704       C  0.42637307  0.12978080  0.73425575    -0.09000
C1705       C  0.41581542  0.11922392  0.74986822    -0.17900
C1706       C  0.41905608  0.09780177  0.75330376     0.04500
C1707       C  0.43386678  0.08744119  0.74059144     0.18700
C1708       C  0.44470184  0.09843147  0.72493754    -0.19300
C1709       C  0.43752837  0.06617428  0.74348624    -0.20600
C1710       C  0.42661155  0.05495730  0.75851416    -0.19100
C1711       C  0.41172966  0.06468901  0.77108751     0.20100
C1712       C  0.40789219  0.08631548  0.76871724     0.02200
C1713       C  0.39278658  0.09551571  0.78169940    -0.13800
C1714       C  0.38165686  0.08376509  0.79602246    -0.11500
C1715       C  0.38509609  0.06240927  0.79820229     0.01800
C1716       C  0.40040559  0.05294492  0.78582560    -0.23700
H1717       H  0.42320736  0.14617763  0.73219775     0.09800
H1718       H  0.40509109  0.12837286  0.75883457     0.13300
H1719       H  0.45585885  0.09042349  0.71520432     0.12100
H1720       H  0.44879571  0.05810787  0.73393724     0.13200
H1721       H  0.42971446  0.03850354  0.76019434     0.12300
H1722       H  0.38895629  0.11176714  0.78111864     0.09400
H1723       H  0.37006778  0.09156621  0.80540017     0.12600
H1724       H  0.40321090  0.03641806  0.78734922     0.14500
C1725       C  0.89252276  0.34763490  0.07348360    -0.01000
C1726       C  0.90350588  0.36603816  0.07734993    -0.09000
C1727       C  0.92072923  0.36614553  0.09059595    -0.17900
C1728       C  0.92764674  0.34767639  0.10029123     0.04500
C1729       C  0.91646557  0.32906049  0.09612687     0.18700
C1730       C  0.89905010  0.32925723  0.08304912    -0.19300
C1731       C  0.92284888  0.31022437  0.10481887    -0.20600
C1732       C  0.94035421  0.30933228  0.11734148    -0.19100
C1733       C  0.95172696  0.32731280  0.12176883     0.20100
C1734       C  0.94540194  0.34684528  0.11365531     0.02200
C1735       C  0.95721006  0.36456235  0.11925622    -0.13800
C1736       C  0.97486760  0.36277982  0.13186310    -0.11500
C1737       C  0.98137668  0.34334832  0.13914447     0.01800
C1738       C  0.96954920  0.32575360  0.13418292    -0.23700
H1739       H  0.89876421  0.38046088  0.07011082     0.09800
H1740       H  0.92845532  0.38084327  0.09272411     0.13300
H1741       H  0.89072103  0.31491837  0.08006879     0.12100
H1742       H  0.91439242  0.29600238  0.10168658     0.13200
H1743       H  0.94505652  0.29442969  0.12359574     0.12300
H1744       H  0.95321332  0.37998002  0.11412429     0.09400
H1745       H  0.98368665  0.37661619  0.13558609     0.12600
H1746       H  0.97429329  0.31065614  0.13994704     0.14500
C1747       C  0.86795963  0.34790722  0.97087882    -0.01000
C1748       C  0.86979136  0.32884959  0.96059742    -0.09000
C1749       C  0.88125133  0.32713432  0.94235315    -0.17900
C1750       C  0.89162638  0.34450465  0.93382913     0.04500
C1751       C  0.88909128  0.36401542  0.94387982     0.18700
C1752       C  0.87719922  0.36557652  0.96215389    -0.19300
C1753       C  0.89886547  0.38173486  0.93591134    -0.20600
C1754       C  0.91145272  0.38045129  0.91841598    -0.19100
C1755       C  0.91466197  0.36139845  0.90848984     0.20100
C1756       C  0.90470000  0.34314544  0.91595085     0.02200
C1757       C  0.90861381  0.32427250  0.90541761    -0.13800
C1758       C  0.92193237  0.32357227  0.88833693    -0.11500
C1759       C  0.93179637  0.34156673  0.88113907     0.01800
C1760       C  0.92799987  0.36045872  0.89125090    -0.23700
H1761       H  0.86254111  0.31500992  0.96688146     0.09800
H1762       H  0.88192978  0.31189758  0.93552045     0.13300
H1763       H  0.87582193  0.38038562  0.97001303     0.12100
H1764       H  0.89695842  0.39666464  0.94340760     0.13200
H1765       H  0.91894943  0.39443615  0.91275653     0.12300
H1766       H  0.90179099  0.30970860  0.91006447     0.09400
H1767       H  0.92461516  0.30879209  0.88080374     0.12600
H1768       H  0.93554834  0.37449894  0.88577429     0.14500
C1769       C  0.63564030  0.53066713  0.15903322    -0.01000
C1770       C  0.63292333  0.54261262  0.14110662    -0.09000
C1771       C  0.62040645  0.56040412  0.14136330    -0.17900
C1772       C  0.61021608  0.56691948  0.15972415     0.04500
C1773       C  0.61358582  0.55509297  0.17801659     0.18700
C1774       C  0.62602664  0.53715688  0.17747350    -0.19300
C1775       C  0.60448267  0.56118518  0.19677191    -0.20600
C1776       C  0.59203590  0.57881456  0.19779708    -0.19100
C1777       C  0.58805032  0.59061931  0.18002028     0.20100
C1778       C  0.59688007  0.58471671  0.16065859     0.02200
C1779       C  0.59172342  0.59673865  0.14305678    -0.13800
C1780       C  0.57859133  0.61394271  0.14466559    -0.11500
C1781       C  0.57031942  0.61999474  0.16382990     0.01800
C1782       C  0.57515048  0.60824218  0.18147676    -0.23700
H1783       H  0.64032855  0.53807007  0.12672821     0.09800
H1784       H  0.61909756  0.56877141  0.12696055     0.13300
H1785       H  0.62822253  0.52820173  0.19154173     0.12100
H1786       H  0.60706886  0.55227816  0.21079525     0.13200
H1787       H  0.58531648  0.58313769  0.21258421     0.12300
H1788       H  0.59739686  0.59312578  0.12777032     0.09400
H1789       H  0.57506713  0.62271613  0.13077436     0.12600
H1790       H  0.56864589  0.61265912  0.19633919     0.14500
C1791       C  0.71570645  0.49117868  0.20869451    -0.01000
C1792       C  0.73433540  0.50093671  0.20305169    -0.09000
C1793       C  0.74875164  0.50682721  0.21802034    -0.17900
C1794       C  0.74488714  0.50328225  0.23929942     0.04500
C1795       C  0.72558856  0.49410463  0.24501501     0.18700
C1796       C  0.71139379  0.48780118  0.22971306    -0.19300
C1797       C  0.72052049  0.49146421  0.26595664    -0.20600
C1798       C  0.73421297  0.49783442  0.28138976    -0.19100
C1799       C  0.75362820  0.50628169  0.27624618     0.20100
C1800       C  0.75940741  0.50869125  0.25508868     0.02200
C1801       C  0.77969214  0.51590525  0.25062103    -0.13800
C1802       C  0.79356423  0.52063869  0.26646506    -0.11500
C1803       C  0.78763218  0.51882704  0.28723164     0.01800
C1804       C  0.76755728  0.51187790  0.29210229    -0.23700
H1805       H  0.73789327  0.50393877  0.18690942     0.09800
H1806       H  0.76258438  0.51446117  0.21243040     0.13300
H1807       H  0.69681202  0.48058895  0.23419216     0.12100
H1808       H  0.70576560  0.48463182  0.27043495     0.13200
H1809       H  0.72974900  0.49577234  0.29746015     0.12300
H1810       H  0.78556471  0.51747438  0.23506013     0.09400
H1811       H  0.80910066  0.52581558  0.26243110     0.12600
H1812       H  0.76309451  0.51004847  0.30821190     0.14500
C1813       C  0.71894811  0.44330529  0.12142879    -0.01000
C1814       C  0.72629339  0.45162918  0.10275395    -0.09000
C1815       C  0.74151390  0.44122967  0.09119850    -0.17900
C1816       C  0.74983120  0.42201852  0.09798764     0.04500
C1817       C  0.74240823  0.41380636  0.11707357     0.18700
C1818       C  0.72718340  0.42441060  0.12847565    -0.19300
C1819       C  0.75017522  0.39501389  0.12473137    -0.20600
C1820       C  0.76517929  0.38406257  0.11379665    -0.19100
C1821       C  0.77268224  0.39155001  0.09484977     0.20100
C1822       C  0.76514414  0.41060499  0.08659564     0.02200
C1823       C  0.77313913  0.41721630  0.06722623    -0.13800
C1824       C  0.78787918  0.40536003  0.05652831    -0.11500
C1825       C  0.79521420  0.38663636  0.06477711     0.01800
C1826       C  0.78758489  0.37991353  0.08401667    -0.23700
H1827       H  0.72031001  0.46628531  0.09707433     0.09800
H1828       H  0.74646118  0.44863778  0.07704527     0.13300
H1829       H  0.72168004  0.41782038  0.14295366     0.12100
H1830       H  0.74458943  0.38871983  0.13929959     0.13200
H1831       H  0.77085695  0.36954401  0.12014854     0.12300
H1832       H  0.76818358  0.43138568  0.05983966     0.09400
H1833       H  0.79349716  0.41085756  0.04167355     0.12600
H1834       H  0.79309132  0.36539675  0.09054272     0.14500
C1835       C  0.67713579  0.11923015  0.92815427    -0.01000
C1836       C  0.69529921  0.10989855  0.92066659    -0.09000
C1837       C  0.69433223  0.09167516  0.90895470    -0.17900
C1838       C  0.67501029  0.08220606  0.90422173     0.04500
C1839       C  0.65659733  0.09210691  0.91133991     0.18700
C1840       C  0.65782552  0.11026457  0.92332608    -0.19300
C1841       C  0.63704656  0.08386506  0.90642010    -0.20600
C1842       C  0.63534344  0.06603817  0.89438694    -0.19100
C1843       C  0.65315325  0.05569806  0.88738360     0.20100
C1844       C  0.67325995  0.06341641  0.89254947     0.02200
C1845       C  0.69072730  0.05183408  0.88601859    -0.13800
C1846       C  0.68834120  0.03365629  0.87454436    -0.11500
C1847       C  0.66856252  0.02645554  0.86889328     0.01800
C1848       C  0.65099021  0.03757068  0.87536503    -0.23700
H1849       H  0.71038293  0.11658503  0.92406463     0.09800
H1850       H  0.70898212  0.08550057  0.90367738     0.13300
H1851       H  0.64363231  0.11748025  0.92886457     0.12100
H1852       H  0.62294264  0.09137902  0.91175999     0.13200
H1853       H  0.61997318  0.06019521  0.89068121     0.12300
H1854       H  0.70645641  0.05623964  0.88975495     0.09400
H1855       H  0.70217629  0.02527386  0.86986283     0.12600
H1856       H  0.63561898  0.03191940  0.87134713     0.14500
C1857       C  0.72569845  0.21809962  0.98738256    -0.01000
C1858       C  0.74673407  0.21287791  0.98927647    -0.09000
C1859       C  0.76118947  0.22750093  0.99631234    -0.17900
C1860       C  0.75500211  0.24800692  0.00128554     0.04500
C1861       C  0.73363649  0.25321973  0.99892703     0.18700
C1862       C  0.71925585  0.23823408  0.99241350    -0.19300
C1863       C  0.72673565  0.27344832  0.00276618    -0.20600
C1864       C  0.74069176  0.28883147  0.00853814    -0.19100
C1865       C  0.76178967  0.28422628  0.01114294     0.20100
C1866       C  0.76922485  0.26365661  0.00806017     0.02200
C1867       C  0.79055027  0.25973900  0.01187449    -0.13800
C1868       C  0.80397889  0.27572692  0.01784569    -0.11500
C1869       C  0.79666316  0.29607623  0.01994672     0.01800
C1870       C  0.77553191  0.30017484  0.01672236    -0.23700
H1871       H  0.75199305  0.19735192  0.98552859     0.09800
H1872       H  0.77712067  0.22239907  0.99733950     0.13300
H1873       H  0.70298730  0.24241291  0.99080399     0.12100
H1874       H  0.71046983  0.27749308  0.00093803     0.13200
H1875       H  0.73492714  0.30444634  0.01102777     0.12300
H1876       H  0.79729807  0.24449298  0.01045264     0.09400
H1877       H  0.82027077  0.27223528  0.02034939     0.12600
H1878       H  0.76973198  0.31587528  0.01860735     0.14500
C1879       C  0.64026103  0.47386935  0.84363320    -0.01000
C1880       C  0.63209795  0.46544549  0.86186701    -0.09000
C1881       C  0.61980761  0.44757512  0.86127040    -0.17900
C1882       C  0.61546643  0.43743911  0.84228959     0.04500
C1883       C  0.62461088  0.44556033  0.82394864     0.18700
C1884       C  0.63661695  0.46373988  0.82474313    -0.19300
C1885       C  0.62170183  0.43551804  0.80493321    -0.20600
C1886       C  0.60989694  0.41745055  0.80373845    -0.19100
C1887       C  0.60024393  0.40932216  0.82142774     0.20100
C1888       C  0.60257646  0.41944649  0.84088218     0.02200
C1889       C  0.59167254  0.41128589  0.85805633    -0.13800
C1890       C  0.57955789  0.39347620  0.85616781    -0.11500
C1891       C  0.57785488  0.38310455  0.83718505     0.01800
C1892       C  0.58814565  0.39118175  0.81979376    -0.23700
H1893       H  0.63482521  0.47296825  0.87662041     0.09800
H1894       H  0.61409029  0.44201402  0.87595615     0.13300
H1895       H  0.64316240  0.47003547  0.81056654     0.12100
H1896       H  0.62875161  0.44158644  0.79091116     0.13200
H1897       H  0.60811766  0.40991535  0.78883789     0.12300
H1898       H  0.59194703  0.41843061  0.87313096     0.09400
H1899       H  0.57150873  0.38775987  0.86978646     0.12600
H1900       H  0.58665030  0.38343524  0.80496304     0.14500
C1901       C  0.48416561  0.20838937  0.71713791    -0.01000
C1902       C  0.48231973  0.20424548  0.73830149    -0.09000
C1903       C  0.48846001  0.21885505  0.75291924    -0.17900
C1904       C  0.49720826  0.23806318  0.74678437     0.04500
C1905       C  0.49895036  0.24227111  0.72520366     0.18700
C1906       C  0.49208814  0.22757818  0.71059698    -0.19300
C1907       C  0.50794912  0.26088312  0.71838682    -0.20600
C1908       C  0.51542886  0.27536278  0.73254932    -0.19100
C1909       C  0.51391797  0.27167986  0.75388450     0.20100
C1910       C  0.50460271  0.25303422  0.76128900     0.02200
C1911       C  0.50318044  0.25011212  0.78293325    -0.13800
C1912       C  0.51070973  0.26495652  0.79660337    -0.11500
C1913       C  0.52000683  0.28322382  0.78933049     0.01800
C1914       C  0.52162721  0.28652251  0.76791862    -0.23700
H1915       H  0.47614952  0.18949327  0.74359064     0.09800
H1916       H  0.48652786  0.21435907  0.76888967     0.13300
H1917       H  0.49372601  0.23069261  0.69415522     0.12100
H1918       H  0.50941090  0.26416943  0.70197503     0.13200
H1919       H  0.52245509  0.28954142  0.72677047     0.12300
H1920       H  0.49623145  0.23657457  0.78991778     0.09400
H1921       H  0.50922871  0.26203537  0.81307431     0.12600
H1922       H  0.52866773  0.30072048  0.76217793     0.14500
C1923       C  0.57859056  0.28560885  0.87150534    -0.01000
C1924       C  0.59829336  0.28011075  0.86390214    -0.09000
C1925       C  0.61126644  0.26669634  0.87501802    -0.17900
C1926       C  0.60490614  0.25820955  0.89424193     0.04500
C1927       C  0.58475806  0.26356738  0.90168412     0.18700
C1928       C  0.57192044  0.27715161  0.89037878    -0.19300
C1929       C  0.57749030  0.25536479  0.92042026    -0.20600
C1930       C  0.58977501  0.24196458  0.93202577    -0.19100
C1931       C  0.60971972  0.23649148  0.92528401     0.20100
C1932       C  0.61768254  0.24458470  0.90634192     0.02200
C1933       C  0.63807343  0.23870942  0.90047204    -0.13800
C1934       C  0.64983802  0.22519017  0.91275575    -0.11500
C1935       C  0.64175749  0.21704451  0.93126703     0.01800
C1936       C  0.62171045  0.22289732  0.93744521    -0.23700
H1937       H  0.60380750  0.28629595  0.84927635     0.09800
H1938       H  0.62614945  0.26324431  0.86813027     0.13300
H1939       H  0.55665219  0.28114181  0.89632347     0.12100
H1940       H  0.56214268  0.25932949  0.92615291     0.13200
H1941       H  0.58362519  0.23586455  0.94644773     0.12300
H1942       H  0.64538571  0.24430923  0.88650357     0.09400
H1943       H  0.66534519  0.22102965  0.90765276     0.12600
H1944       H  0.61533753  0.21678863  0.95177632     0.14500
C1945       C  0.58140616  0.16485768  0.38634272    -0.01000
C1946       C  0.58493921  0.18389680  0.39612930    -0.09000
C1947       C  0.59767872  0.18513523  0.41358419    -0.17900
C1948       C  0.60748856  0.16724377  0.42177810     0.04500
C1949       C  0.60427117  0.14803945  0.41141860     0.18700
C1950       C  0.59122618  0.14699895  0.39399298    -0.19300
C1951       C  0.61390695  0.12993735  0.41863695    -0.20600
C1952       C  0.62636563  0.13037275  0.43623717    -0.19100
C1953       C  0.62939490  0.14889371  0.44715060     0.20100
C1954       C  0.62012488  0.16764356  0.43999137     0.02200
C1955       C  0.62358952  0.18589297  0.45162293    -0.13800
C1956       C  0.63523060  0.18542245  0.46982646    -0.11500
C1957       C  0.64401068  0.16687576  0.47705931     0.01800
C1958       C  0.64131015  0.14869854  0.46544468    -0.23700
H1959       H  0.57748891  0.19789198  0.39049875     0.09800
H1960       H  0.59942755  0.20032304  0.42032307     0.13300
H1961       H  0.58867920  0.13221201  0.38638213     0.12100
H1962       H  0.61164334  0.11528185  0.41071265     0.13200
H1963       H  0.63343660  0.11604322  0.44152767     0.12300
H1964       H  0.61725371  0.20075355  0.44729855     0.09400
H1965       H  0.63715518  0.19972239  0.47843622     0.12600
H1966       H  0.64802537  0.13426128  0.47092372     0.14500
C1967       C  0.47993325  0.15775278  0.36964613    -0.01000
C1968       C  0.46959220  0.13919095  0.37420394    -0.09000
C1969       C  0.45145347  0.13925068  0.38618417    -0.17900
C1970       C  0.44304342  0.15803080  0.39395351     0.04500
C1971       C  0.45351350  0.17683474  0.38900729     0.18700
C1972       C  0.47173067  0.17651095  0.37706653    -0.19300
C1973       C  0.44579070  0.19589792  0.39600325    -0.20600
C1974       C  0.42774295  0.19675115  0.40780769    -0.19100
C1975       C  0.41709783  0.17854672  0.41307225     0.20100
C1976       C  0.42465531  0.15888714  0.40638493     0.02200
C1977       C  0.41354326  0.14096899  0.41258326    -0.13800
C1978       C  0.39574360  0.14254270  0.42485916    -0.11500
C1979       C  0.38829522  0.16194764  0.43119590     0.01800
C1980       C  0.39898564  0.17990080  0.42516314    -0.23700
H1981       H  0.47562609  0.12452652  0.36862129     0.09800
H1982       H  0.44438153  0.12435024  0.38902619     0.13300
H1983       H  0.47956861  0.19101541  0.37355157     0.12100
H1984       H  0.45373695  0.21027606  0.39225811     0.13200
H1985       H  0.42212276  0.21175794  0.41293489     0.12300
H1986       H  0.41828611  0.12549796  0.40839138     0.09400
H1987       H  0.38773819  0.12843742  0.42939179    -0.06600
H1988       H  0.39341523  0.19496436  0.43020637     0.14500
C1989       C  0.67341127  0.14272701  0.02779516    -0.01000
C1990       C  0.69185848  0.13640232  0.03749529    -0.09000
C1991       C  0.69140254  0.12471973  0.05569340    -0.17900
C1992       C  0.67231727  0.11866092  0.06475841     0.04500
C1993       C  0.65361336  0.12561572  0.05519367     0.18700
C1994       C  0.65432053  0.13767665  0.03699655    -0.19300
C1995       C  0.63429855  0.12002975  0.06353417    -0.20600
C1996       C  0.63310231  0.10709547  0.08075514    -0.19100
C1997       C  0.65119125  0.09948178  0.09012413     0.20100
C1998       C  0.67109492  0.10548236  0.08257124     0.02200
C1999       C  0.68885554  0.09761173  0.09290744    -0.13800
C2000       C  0.68688051  0.08380671  0.10950905    -0.11500
C2001       C  0.66723454  0.07735481  0.11633048     0.01800
C2002       C  0.64945665  0.08553467  0.10677860    -0.23700
H2003       H  0.70684215  0.14030393  0.03083246     0.09800
H2004       H  0.70627233  0.12034078  0.06201192     0.13300
H2005       H  0.63997462  0.14252730  0.02961111     0.12100
H2006       H  0.61998863  0.12536479  0.05643454     0.13200
H2007       H  0.61788803  0.10273533  0.08658388     0.12300
H2008       H  0.70450047  0.10162255  0.08842878     0.09400
H2009       H  0.70084141  0.07784221  0.11677848     0.12600
H2010       H  0.63416738  0.08085827  0.11217787     0.14500
C2011       C  0.65863907  0.97301071  0.13345058    -0.01000
C2012       C  0.67725211  0.96169658  0.13356015    -0.09000
C2013       C  0.67914086  0.94320457  0.12259463    -0.17900
C2014       C  0.66242261  0.93539503  0.11077258     0.04500
C2015       C  0.64344532  0.94682765  0.11076407     0.18700
C2016       C  0.64161795  0.96531890  0.12229771    -0.19300
C2017       C  0.62659371  0.93996282  0.09888339    -0.20600
C2018       C  0.62826780  0.92219091  0.08676635    -0.19100
C2019       C  0.64675513  0.91069251  0.08640495     0.20100
C2020       C  0.66402389  0.91692514  0.09862530     0.02200
C2021       C  0.68219902  0.90449348  0.09796381    -0.13800
C2022       C  0.68334468  0.88701101  0.08523862    -0.11500
C2023       C  0.66646968  0.88127096  0.07284459     0.01800
C2024       C  0.64813078  0.89306448  0.07370553    -0.23700
H2025       H  0.69061428  0.96725284  0.14215294     0.09800
H2026       H  0.69405598  0.93564378  0.12341110     0.13300
H2027       H  0.62721123  0.97406799  0.12202299     0.12100
H2028       H  0.61210284  0.94856125  0.09873200     0.13200
H2029       H  0.61501833  0.91745314  0.07752814     0.12300
H2030       H  0.69584157  0.90784288  0.10703743     0.09400
H2031       H  0.69758639  0.87802547  0.08501426     0.12600
H2032       H  0.63488868  0.88864770  0.06428718     0.14500
C2033       C  0.57093230  0.12279219  0.28998673    -0.01000
C2034       C  0.58871926  0.13139157  0.28077718    -0.09000
C2035       C  0.59919805  0.12107583  0.26493570    -0.17900
C2036       C  0.59224920  0.10158030  0.25764937     0.04500
C2037       C  0.57436670  0.09270585  0.26720130     0.18700
C2038       C  0.56388159  0.10334500  0.28317859    -0.19300
C2039       C  0.56704242  0.07329635  0.26069808    -0.20600
C2040       C  0.57713750  0.06244364  0.24497684    -0.19100
C2041       C  0.59476687  0.07075182  0.23524944     0.20100
C2042       C  0.60248086  0.09053675  0.24135163     0.02200
C2043       C  0.62016570  0.09837350  0.23091334    -0.13800
C2044       C  0.63008765  0.08683744  0.21557277    -0.11500
C2045       C  0.62278294  0.06714487  0.20988958     0.01800
C2046       C  0.60489689  0.05929351  0.21960498    -0.23700
H2047       H  0.59454566  0.14638286  0.28569616     0.09800
H2048       H  0.61269196  0.12884237  0.25876129     0.13300
H2049       H  0.55014114  0.09653942  0.29020080     0.12100
H2050       H  0.55343653  0.06640798  0.26788364     0.13200
H2051       H  0.57112464  0.04740135  0.24042163     0.12300
H2052       H  0.62685890  0.11332295  0.23427752     0.09400
H2053       H  0.64376722  0.09338952  0.20822630     0.12600
H2054       H  0.59909933  0.04408522  0.21530517     0.14500
C2055       C  0.87824873  0.93139206  0.33676226    -0.01000
C2056       C  0.89018354  0.92826178  0.31889597    -0.09000
C2057       C  0.90822547  0.91617118  0.31955215    -0.17900
C2058       C  0.91480330  0.90659095  0.33820137     0.04500
C2059       C  0.90221060  0.90929930  0.35611135     0.18700
C2060       C  0.88427058  0.92171003  0.35526902    -0.19300
C2061       C  0.90765862  0.89974237  0.37482640    -0.20600
C2062       C  0.92550884  0.88765096  0.37625058    -0.19100
C2063       C  0.93848232  0.88496422  0.35904927     0.20100
C2064       C  0.93336854  0.89446110  0.33977457     0.02200
C2065       C  0.94718023  0.89155166  0.32299347    -0.13800
C2066       C  0.96514743  0.87965617  0.32523138    -0.11500
C2067       C  0.97002851  0.87014550  0.34417229     0.01800
C2068       C  0.95660587  0.87287053  0.36104385    -0.23700
H2069       H  0.88579222  0.93555640  0.30441349     0.09800
H2070       H  0.91665479  0.91464984  0.30519903     0.13300
H2071       H  0.87495136  0.92386358  0.36911989     0.12100
H2072       H  0.89804631  0.90166216  0.38849922     0.13200
H2073       H  0.92927759  0.88047421  0.39097437     0.12300
H2074       H  0.94464623  0.89835419  0.30795002     0.09400
H2075       H  0.97525803  0.87783910  0.31191562     0.12600
H2076       H  0.96030080  0.86565312  0.37577477     0.14500
C2077       C  0.85092181  0.03556771  0.34103053    -0.01000
C2078       C  0.85499225  0.04537021  0.35994964    -0.09000
C2079       C  0.86687872  0.06361180  0.36069979    -0.17900
C2080       C  0.87528663  0.07256385  0.34243089     0.04500
C2081       C  0.87013428  0.06314446  0.32321119     0.18700
C2082       C  0.85802274  0.04497156  0.32268870    -0.19300
C2083       C  0.87766673  0.07149541  0.30461344    -0.20600
C2084       C  0.89083927  0.08863572  0.30467942    -0.19100
C2085       C  0.89694012  0.09781723  0.32335154     0.20100
C2086       C  0.88906750  0.09008943  0.34250815     0.02200
C2087       C  0.89591402  0.09982350  0.36090261    -0.13800
C2088       C  0.91040749  0.11601492  0.36031727    -0.11500
C2089       C  0.91845162  0.12331137  0.34145457     0.01800
C2090       C  0.91131091  0.11436275  0.32298343    -0.23700
H2091       H  0.84948399  0.03859374  0.37431432     0.09800
H2092       H  0.86957784  0.07007475  0.37584411     0.13300
H2093       H  0.85477478  0.03769523  0.30789892     0.12100
H2094       H  0.87365453  0.06447009  0.28989687     0.13200
H2095       H  0.89666323  0.09447282  0.29001853     0.12300
H2096       H  0.89068782  0.09501698  0.37602880     0.09400
H2097       H  0.91549873  0.12274576  0.37482662     0.12600
H2098       H  0.91739157  0.11987922  0.30829564     0.14500
C2099       C  0.70618420  0.01158312  0.21093172    -0.01000
C2100       C  0.69933499  0.00115552  0.22871279    -0.09000
C2101       C  0.71345928  0.99397857  0.24341026    -0.17900
C2102       C  0.73509963  0.99696021  0.24077218     0.04500
C2103       C  0.74202338  0.00721293  0.22248345     0.18700
C2104       C  0.72757620  0.01445472  0.20782623    -0.19300
C2105       C  0.76330207  0.01035354  0.21903680    -0.20600
C2106       C  0.77788756  0.00392882  0.23359607    -0.19100
C2107       C  0.77154558  0.99427795  0.25199648     0.20100
C2108       C  0.75005849  0.99047559  0.25577452     0.02200
C2109       C  0.74444914  0.98080960  0.27466036    -0.13800
C2110       C  0.75940583  0.97605383  0.28951529    -0.11500
C2111       C  0.78043983  0.98030954  0.28594218     0.01800
C2112       C  0.78651990  0.98892356  0.26694175    -0.23700
H2113       H  0.68288279  0.99864211  0.23141139     0.09800
H2114       H  0.70686402  0.98623431  0.25667541     0.13300
H2115       H  0.73300741  0.02232998  0.19397576     0.12100
H2116       H  0.76869604  0.01803678  0.20507463     0.13200
H2117       H  0.79422941  0.00683219  0.23059038     0.12300
H2118       H  0.72861078  0.97712898  0.27869603     0.09400
H2119       H  0.75443293  0.96920234  0.30404583     0.12600
H2120       H  0.80281778  0.99232331  0.26416613     0.14500
C2121       C  0.61833113  0.83794835  0.43251390    -0.01000
C2122       C  0.61010974  0.81940481  0.42475437    -0.09000
C2123       C  0.59311470  0.81963769  0.41128904    -0.17900
C2124       C  0.58375495  0.83857599  0.40514764     0.04500
C2125       C  0.59246103  0.85734695  0.41279419     0.18700
C2126       C  0.60951113  0.85685938  0.42632467    -0.19300
C2127       C  0.58399768  0.87653004  0.40707179    -0.20600
C2128       C  0.56674474  0.87752301  0.39416508    -0.19100
C2129       C  0.55746140  0.85935382  0.38674781     0.20100
C2130       C  0.56592315  0.83959983  0.39198884     0.02200
C2131       C  0.55589237  0.82174135  0.38416107    -0.13800
C2132       C  0.53790039  0.82342511  0.37226547    -0.11500
C2133       C  0.52938378  0.84288255  0.36751294     0.01800
C2134       C  0.53946937  0.86082111  0.37445931    -0.23700
H2135       H  0.61675255  0.80460601  0.42921326     0.09800
H2136       H  0.58764781  0.80472623  0.40606570     0.13300
H2137       H  0.61587778  0.87132135  0.43213350     0.12100
H2138       H  0.59066336  0.89088923  0.41277760     0.13200
H2139       H  0.56043679  0.89261529  0.39019535     0.12300
H2140       H  0.56132536  0.80621802  0.38720063     0.09400
H2141       H  0.53051616  0.80930815  0.36686428     0.12600
H2142       H  0.53297987  0.87592597  0.37080734     0.14500
C2143       C  0.63763123  0.84303390  0.53371589    -0.01000
C2144       C  0.62899059  0.86167699  0.54075648    -0.09000
C2145       C  0.61593201  0.86196871  0.55814032    -0.17900
C2146       C  0.61120854  0.84349990  0.56915791     0.04500
C2147       C  0.62080648  0.82480229  0.56242963     0.18700
C2148       C  0.63374781  0.82473375  0.54488223    -0.19300
C2149       C  0.61717925  0.80616818  0.57302660    -0.20600
C2150       C  0.60399588  0.80559225  0.59009539    -0.19100
C2151       C  0.59395725  0.82359960  0.59691858     0.20100
C2152       C  0.59730826  0.84282297  0.58651349     0.02200
C2153       C  0.58640751  0.86042242  0.59383056    -0.13800
C2154       C  0.57306053  0.85902100  0.61089378    -0.11500
C2155       C  0.57014273  0.84013021  0.62133112     0.01800
C2156       C  0.58057658  0.82245348  0.61414620    -0.23700
H2157       H  0.63182603  0.87601605  0.53242448     0.09800
H2158       H  0.60966467  0.87685701  0.56246847     0.13300
H2159       H  0.64059664  0.81025149  0.53970271     0.12100
H2160       H  0.62454040  0.79188831  0.56802228     0.13200
H2161       H  0.60151969  0.79090035  0.59793543     0.12300
H2162       H  0.58779680  0.87548102  0.58666812     0.09400
H2163       H  0.56512277  0.87291651  0.61606248     0.12600
H2164       H  0.57830705  0.80772722  0.62199852     0.14500
C2165       C  0.71460438  0.87867253  0.44153960    -0.01000
C2166       C  0.72135799  0.89792906  0.44901678    -0.09000
C2167       C  0.73452291  0.91056304  0.43710701    -0.17900
C2168       C  0.74131632  0.90430939  0.41717371     0.04500
C2169       C  0.73446558  0.88467386  0.40977160     0.18700
C2170       C  0.72135411  0.87215736  0.42191690    -0.19300
C2171       C  0.74065916  0.87759676  0.39022838    -0.20600
C2172       C  0.75363696  0.88956047  0.37781408    -0.19100
C2173       C  0.76074557  0.90892754  0.38460426     0.20100
C2174       C  0.75465332  0.91669997  0.40431704     0.02200
C2175       C  0.76223538  0.93648674  0.41021395    -0.13800
C2176       C  0.77552632  0.94784537  0.39721823    -0.11500
C2177       C  0.78168836  0.93992694  0.37796205     0.01800
C2178       C  0.77405509  0.92050100  0.37174543    -0.23700
H2179       H  0.71639151  0.90330857  0.46412548     0.09800
H2180       H  0.73907206  0.92513973  0.44390269     0.13300
H2181       H  0.71623351  0.85728809  0.41591705     0.12100
H2182       H  0.73545275  0.86265662  0.38450102     0.13200
H2183       H  0.75819260  0.88358304  0.36278702     0.12300
H2184       H  0.75823692  0.94357372  0.42479002     0.09400
H2185       H  0.78110560  0.96285458  0.40234801     0.12600
H2186       H  0.77859648  0.91422958  0.35682740     0.14500
C2187       C  0.33565652  0.12082209  0.08922158    -0.01000
C2188       C  0.35417859  0.11349211  0.09797373    -0.09000
C2189       C  0.35412463  0.09653529  0.11142632    -0.17900
C2190       C  0.33543291  0.08603430  0.11634976     0.04500
C2191       C  0.31657405  0.09388736  0.10786566     0.18700
C2192       C  0.31682718  0.11125499  0.09462622    -0.19300
C2193       C  0.29765042  0.08400424  0.11216545    -0.20600
C2194       C  0.29710352  0.06604735  0.12413814    -0.19100
C2195       C  0.31545945  0.05757290  0.13217392     0.20100
C2196       C  0.33485294  0.06766838  0.12879073     0.02200
C2197       C  0.35287702  0.05857722  0.13752163    -0.13800
C2198       C  0.35180804  0.03978153  0.14824736    -0.11500
C2199       C  0.33281154  0.02946443  0.15074020     0.01800
C2200       C  0.31461135  0.03870815  0.14308937    -0.23700
H2201       H  0.36890469  0.12078606  0.09421665     0.09800
H2202       H  0.36906094  0.09178611  0.11732777     0.13300
H2203       H  0.30241652  0.11684935  0.08791262     0.12100
H2204       H  0.28321059  0.08995446  0.10585379     0.13200
H2205       H  0.28224884  0.05851507  0.12680797     0.12300
H2206       H  0.36812702  0.06538668  0.13605021     0.09400
H2207       H  0.36604789  0.03304371  0.15418108     0.12600
H2208       H  0.29977483  0.03092931  0.14514096     0.14500
C2209       C  0.34384160  0.07185343  0.89423298    -0.01000
C2210       C  0.36285051  0.07901541  0.90210589    -0.09000
C2211       C  0.36354942  0.09180983  0.91957488    -0.17900
C2212       C  0.34512291  0.09772142  0.93001377     0.04500
C2213       C  0.32584246  0.09055704  0.92184911     0.18700
C2214       C  0.32536740  0.07793195  0.90406115    -0.19300
C2215       C  0.30713294  0.09579875  0.93163501    -0.20600
C2216       C  0.30711808  0.10781253  0.94951061    -0.19100
C2217       C  0.32580804  0.11498957  0.95802649     0.20100
C2218       C  0.34510472  0.11023077  0.94835790     0.02200
C2219       C  0.36348605  0.11808746  0.95760240    -0.13800
C2220       C  0.36269225  0.12995442  0.97574224    -0.11500
C2221       C  0.34365148  0.13432466  0.98531559     0.01800
C2222       C  0.32526935  0.12683224  0.97627982    -0.23700
H2223       H  0.37735206  0.07467320  0.89472149     0.09800
H2224       H  0.37876678  0.09660534  0.92464040     0.13300
H2225       H  0.31057752  0.07244846  0.89812491     0.12100
H2226       H  0.29238911  0.09041453  0.92551527     0.13200
H2227       H  0.29235551  0.11144793  0.95678431     0.12300
H2228       H  0.37872086  0.11531206  0.95123348     0.09400
H2229       H  0.37709549  0.13557717  0.98240087     0.12600
H2230       H  0.31040537  0.13021395  0.98348717     0.14500
C2231       C  0.44156131  0.38598284  0.16717537    -0.01000
C2232       C  0.43848720  0.39606145  0.14815391    -0.09000
C2233       C  0.42606773  0.41377262  0.14676328    -0.17900
C2234       C  0.41625213  0.42210177  0.16449072     0.04500
C2235       C  0.42035140  0.41249563  0.18394904     0.18700
C2236       C  0.43274367  0.39452655  0.18509489    -0.19300
C2237       C  0.41184980  0.42073590  0.20212242    -0.20600
C2238       C  0.39903395  0.43809093  0.20137750    -0.19100
C2239       C  0.39404105  0.44738223  0.18240025     0.20100
C2240       C  0.40244627  0.43949818  0.16362909     0.02200
C2241       C  0.39623460  0.44908341  0.14483998    -0.13800
C2242       C  0.38242010  0.46588501  0.14478551    -0.11500
C2243       C  0.37458603  0.47382048  0.16339201     0.01800
C2244       C  0.38049330  0.46444903  0.18211751    -0.23700
H2245       H  0.44544021  0.39001656  0.13410837     0.09800
H2246       H  0.42443726  0.42056939  0.13158238     0.13300
H2247       H  0.43537445  0.38708865  0.19994661     0.12100
H2248       H  0.41507102  0.41365980  0.21702419     0.13200
H2249       H  0.39267880  0.44407625  0.21574029     0.12300
H2250       H  0.40156084  0.44379316  0.12991424     0.09400
H2251       H  0.37808836  0.47287631  0.13014066     0.12600
H2252       H  0.37436895  0.47036940  0.19661820     0.14500
C2253       C  0.53896001  0.35626318  0.16074891    -0.01000
C2254       C  0.54512200  0.36474588  0.14174935    -0.09000
C2255       C  0.56276180  0.37736177  0.14039698    -0.17900
C2256       C  0.57488670  0.38186024  0.15814280     0.04500
C2257       C  0.56918021  0.37223385  0.17715381     0.18700
C2258       C  0.55133673  0.35968580  0.17829727    -0.19300
C2259       C  0.58097281  0.37563928  0.19505400    -0.20600
C2260       C  0.59795334  0.38901520  0.19468447    -0.19100
C2261       C  0.60340714  0.39950690  0.17646832     0.20100
C2262       C  0.59211515  0.39591464  0.15785591     0.02200
C2263       C  0.59816853  0.40705796  0.13994617    -0.13800
C2264       C  0.61428966  0.42155284  0.14065955    -0.11500
C2265       C  0.62504013  0.42538870  0.15912770     0.01800
C2266       C  0.61976876  0.41400444  0.17689793    -0.23700
H2267       H  0.53582570  0.36226516  0.12798023     0.09800
H2268       H  0.56627413  0.38360202  0.12530356     0.13300
H2269       H  0.54677374  0.35298425  0.19304461     0.12100
H2270       H  0.57683138  0.36815849  0.20953790     0.13200
H2271       H  0.60657655  0.39155410  0.20888268     0.12300
H2272       H  0.59050045  0.40527257  0.12522735     0.09400
H2273       H  0.61815103  0.43003094  0.12666510     0.12600
H2274       H  0.62807172  0.41678649  0.19124737     0.14500
C2275       C  0.48830568  0.28157462  0.21489700    -0.01000
C2276       C  0.49224493  0.26118223  0.20848688    -0.09000
C2277       C  0.49768432  0.24585693  0.22274317    -0.17900
C2278       C  0.49964371  0.25049672  0.24404852     0.04500
C2279       C  0.49574583  0.27124843  0.25050334     0.18700
C2280       C  0.48975667  0.28644198  0.23600226    -0.19300
C2281       C  0.49839608  0.27682868  0.27129126    -0.20600
C2282       C  0.50535397  0.26236816  0.28573738    -0.19100
C2283       C  0.50921637  0.24180835  0.27988632     0.20100
C2284       C  0.50583736  0.23542688  0.25906777     0.02200
C2285       C  0.50871711  0.21421138  0.25422118    -0.13800
C2286       C  0.51513572  0.20009238  0.26928922    -0.11500
C2287       C  0.51925129  0.20663364  0.28952843     0.01800
C2288       C  0.51629185  0.22751046  0.29477054    -0.23700
H2289       H  0.49131792  0.25704073  0.19224929     0.09800
H2290       H  0.50081946  0.23068440  0.21647557     0.13300
H2291       H  0.48697550  0.30225045  0.24105344     0.12100
H2292       H  0.49549222  0.29260978  0.27633285     0.13200
H2293       H  0.50764188  0.26728369  0.30162761     0.12300
H2294       H  0.50581702  0.20794241  0.23903148     0.09400
H2295       H  0.51710645  0.18394779  0.26500884     0.12600
H2296       H  0.51902660  0.23252003  0.31057229     0.14500
C2297       C  0.43993853  0.28867799  0.12817679    -0.01000
C2298       C  0.41981325  0.28407091  0.13512138    -0.09000
C2299       C  0.40743466  0.26969232  0.12482307    -0.17900
C2300       C  0.41474902  0.25924941  0.10701073     0.04500
C2301       C  0.43498229  0.26429369  0.09959278     0.18700
C2302       C  0.44739370  0.27888180  0.11021714    -0.19300
C2303       C  0.44271571  0.25458688  0.08175893    -0.20600
C2304       C  0.43082735  0.23989965  0.07120500    -0.19100
C2305       C  0.41095527  0.23440640  0.07829761     0.20100
C2306       C  0.40269334  0.24397860  0.09637410     0.02200
C2307       C  0.38274106  0.23773364  0.10315729    -0.13800
C2308       C  0.37140822  0.22285467  0.09240166    -0.11500
C2309       C  0.37937463  0.21358534  0.07446367     0.01800
C2310       C  0.39924536  0.21939021  0.06747565    -0.23700
H2311       H  0.41359099  0.29142498  0.14888266     0.09800
H2312       H  0.39221911  0.26712024  0.13133124     0.13300
H2313       H  0.46293343  0.28238463  0.10466444     0.12100
H2314       H  0.45808654  0.25836114  0.07593975     0.13200
H2315       H  0.43727539  0.23270088  0.05745633     0.12300
H2316       H  0.37536957  0.24394379  0.11678885     0.09400
H2317       H  0.35614136  0.21868224  0.09820530     0.12600
H2318       H  0.40558527  0.21226505  0.05363190     0.14500
C2319       C  0.12119630  0.33489103  0.92651074    -0.01000
C2320       C  0.11515745  0.31694141  0.91590802    -0.09000
C2321       C  0.09850070  0.31735706  0.90204435    -0.17900
C2322       C  0.08735086  0.33592223  0.89821592     0.04500
C2323       C  0.09360496  0.35411611  0.90899973     0.18700
C2324       C  0.11030085  0.35342120  0.92300419    -0.19300
C2325       C  0.08311663  0.37289640  0.90582633    -0.20600
C2326       C  0.06626839  0.37397256  0.89238443    -0.19100
C2327       C  0.05947286  0.35629146  0.88179215     0.20100
C2328       C  0.07005134  0.33704006  0.88436620     0.02200
C2329       C  0.06258025  0.31967186  0.87325375    -0.13800
C2330       C  0.04473578  0.32110926  0.86109101    -0.11500
C2331       C  0.03398444  0.33990885  0.85921369     0.01800
C2332       C  0.04176581  0.35760977  0.86908116    -0.23700
H2333       H  0.12330140  0.30243153  0.91839995     0.09800
H2334       H  0.09475209  0.30286180  0.89462812     0.13300
H2335       H  0.11491676  0.36743077  0.93109752     0.12100
H2336       H  0.08786878  0.38683454  0.91394654     0.13200
H2337       H  0.05832422  0.38869028  0.89046910     0.12300
H2338       H  0.06987582  0.30463896  0.87394949     0.09400
H2339       H  0.03912089  0.30729501  0.85332041     0.12600
H2340       H  0.03347139  0.37220101  0.86765666     0.14500
C2341       C  0.14245436  0.33362897  0.02880362    -0.01000
C2342       C  0.13256680  0.31509237  0.03464600    -0.09000
C2343       C  0.12134672  0.31365808  0.05311991    -0.17900
C2344       C  0.11952504  0.33085903  0.06656472     0.04500
C2345       C  0.12964318  0.34964629  0.06067808     0.18700
C2346       C  0.14102266  0.35084308  0.04201049    -0.19300
C2347       C  0.12810146  0.36721469  0.07332998    -0.20600
C2348       C  0.11637360  0.36669873  0.09146459    -0.19100
C2349       C  0.10601801  0.34854324  0.09754909     0.20100
C2350       C  0.10772582  0.33022585  0.08540271     0.02200
C2351       C  0.09734541  0.31217653  0.09256471    -0.13800
C2352       C  0.08519223  0.31255784  0.11054740    -0.11500
C2353       C  0.08292282  0.33085385  0.12202423     0.01800
C2354       C  0.09367914  0.34871189  0.11557751    -0.23700
H2355       H  0.13333987  0.30153058  0.02476573     0.09800
H2356       H  0.11407476  0.29891450  0.05627910     0.13300
H2357       H  0.14855646  0.36527350  0.03765243     0.12100
H2358       H  0.13579622  0.38156917  0.06902313     0.13200
H2359       H  0.11526210  0.38067989  0.10072720     0.12300
H2360       H  0.09815843  0.29753904  0.08455281     0.09400
H2361       H  0.07717568  0.29851527  0.11524489     0.12600
H2362       H  0.09220485  0.36292248  0.12444816     0.14500
C2363       C  0.21988071  0.28593839  0.97968524    -0.01000
C2364       C  0.21373307  0.26522471  0.98206339    -0.09000
C2365       C  0.22772663  0.25033024  0.98941523    -0.17900
C2366       C  0.24843877  0.25576770  0.99457061     0.04500
C2367       C  0.25488817  0.27656598  0.99084841     0.18700
C2368       C  0.24062617  0.29136989  0.98358204    -0.19300
C2369       C  0.27538627  0.28264173  0.99493537    -0.20600
C2370       C  0.28957986  0.26860640  0.00313896    -0.19100
C2371       C  0.28354592  0.24822684  0.00771804     0.20100
C2372       C  0.26288182  0.24147993  0.00355352     0.02200
C2373       C  0.25747762  0.22088589  0.00904410    -0.13800
C2374       C  0.27198681  0.20759940  0.01819153    -0.11500
C2375       C  0.29238255  0.21421953  0.02184093     0.01800
C2376       C  0.29807442  0.23455357  0.01655092    -0.23700
H2377       H  0.19780844  0.26065246  0.97898874     0.09800
H2378       H  0.22178079  0.23478386  0.99114376     0.13300
H2379       H  0.24557947  0.30733256  0.98143823     0.12100
H2380       H  0.28042897  0.29843168  0.99195503     0.13200
H2381       H  0.30530754  0.27383028  0.00623700     0.12300
H2382       H  0.24212819  0.21462148  0.00665082     0.09400
H2383       H  0.26733537  0.19187571  0.02199662     0.12600
H2384       H  0.31385318  0.23978929  0.01942443     0.14500
C2385       C  0.38716322  0.41975776  0.83594340    -0.01000
C2386       C  0.39378587  0.41193876  0.85511328    -0.09000
C2387       C  0.41146301  0.39937541  0.85657455    -0.17900
C2388       C  0.42332741  0.39438677  0.83880279     0.04500
C2389       C  0.41652321  0.40243873  0.81939222     0.18700
C2390       C  0.39854223  0.41478524  0.81812464    -0.19300
C2391       C  0.42783930  0.39836041  0.80133970    -0.20600
C2392       C  0.44590180  0.38659108  0.80210305    -0.19100
C2393       C  0.45304275  0.37847034  0.82091403     0.20100
C2394       C  0.44182532  0.38200420  0.83955553     0.02200
C2395       C  0.44976149  0.37308867  0.85804093    -0.13800
C2396       C  0.46830808  0.36161396  0.85799230    -0.11500
C2397       C  0.47949459  0.35870087  0.83959679     0.01800
C2398       C  0.47155340  0.36699307  0.82112372    -0.23700
H2399       H  0.38525922  0.41558319  0.86913046     0.09800
H2400       H  0.41558074  0.39402717  0.87185254     0.13300
H2401       H  0.39365191  0.42091655  0.80325005     0.12100
H2402       H  0.42278165  0.40447493  0.78652383     0.13200
H2403       H  0.45440890  0.38388310  0.78784838     0.12300
H2404       H  0.44205882  0.37479066  0.87277684     0.09400
H2405       H  0.47406392  0.35528364  0.87244543     0.12600
H2406       H  0.47995083  0.36468730  0.80672512     0.14500
C2407       C  0.36794017  0.52098854  0.83601073    -0.01000
C2408       C  0.37480563  0.52953858  0.81723620    -0.09000
C2409       C  0.38575469  0.54823314  0.81678046    -0.17900
C2410       C  0.39053499  0.55894096  0.83526973     0.04500
C2411       C  0.38377934  0.55004190  0.85433724     0.18700
C2412       C  0.37229271  0.53142959  0.85451684    -0.19300
C2413       C  0.38882817  0.55958866  0.87313152    -0.20600
C2414       C  0.40070353  0.57763678  0.87345120    -0.19100
C2415       C  0.40743681  0.58685807  0.85496625     0.20100
C2416       C  0.40211939  0.57790076  0.83556660     0.02200
C2417       C  0.40867375  0.58832588  0.81735586    -0.13800
C2418       C  0.42052136  0.60649477  0.81842544    -0.11500
C2419       C  0.42633324  0.61480507  0.83758918     0.01800
C2420       C  0.41957497  0.60497747  0.85579628    -0.23700
H2421       H  0.37160979  0.52175053  0.80271269     0.09800
H2422       H  0.39057662  0.55367147  0.80173010     0.13300
H2423       H  0.36719842  0.52478758  0.86911601     0.12100
H2424       H  0.38381765  0.55287757  0.88771792     0.13200
H2425       H  0.40461653  0.58446465  0.88828674     0.12300
H2426       H  0.40485214  0.58289673  0.80204364     0.09400
H2427       H  0.42545309  0.61387597  0.80414834     0.12600
H2428       H  0.42380723  0.61143340  0.87072090     0.14500
C2429       C  0.28756904  0.43498960  0.87429968    -0.01000
C2430       C  0.28466233  0.44080373  0.89502736    -0.09000
C2431       C  0.27006571  0.43046515  0.90755567    -0.17900
C2432       C  0.25783899  0.41395569  0.89962582     0.04500
C2433       C  0.26071457  0.40847201  0.87847708     0.18700
C2434       C  0.27540361  0.41887752  0.86620341    -0.19300
C2435       C  0.24901617  0.39249413  0.86959026    -0.20600
C2436       C  0.23458019  0.38157592  0.88128903    -0.19100
C2437       C  0.23154631  0.38625983  0.90222330     0.20100
C2438       C  0.24300529  0.40254351  0.91178023     0.02200
C2439       C  0.23922360  0.40639490  0.93307038    -0.13800
C2440       C  0.22497422  0.39431373  0.94436949    -0.11500
C2441       C  0.21402891  0.37809406  0.93484917     0.01800
C2442       C  0.21727479  0.37440975  0.91369030    -0.23700
H2443       H  0.29385811  0.45322594  0.90165791     0.09800
H2444       H  0.26873811  0.43566530  0.92336445     0.13300
H2445       H  0.27740389  0.41428440  0.85016428     0.12100
H2446       H  0.25111681  0.38832583  0.85345546     0.13200
H2447       H  0.22585927  0.36920392  0.87393562     0.12300
H2448       H  0.24723342  0.41844641  0.94145270     0.09400
H2449       H  0.22278288  0.39746839  0.96070514     0.12600
H2450       H  0.20888352  0.36195057  0.90609091     0.14500
C2451       C  0.84456124  0.62452075  0.57954459    -0.01000
C2452       C  0.86382581  0.61575676  0.58474013    -0.09000
C2453       C  0.86518995  0.59983988  0.59941693    -0.17900
C2454       C  0.84716696  0.59197120  0.60927753     0.04500
C2455       C  0.82766801  0.60096830  0.60392988     0.18700
C2456       C  0.82658275  0.61717915  0.58939952    -0.19300
C2457       C  0.80926166  0.59344457  0.61275776    -0.20600
C2458       C  0.80967028  0.57668180  0.62628391    -0.19100
C2459       C  0.82852780  0.56723634  0.63156634     0.20100
C2460       C  0.84764183  0.57506602  0.62366928     0.02200
C2461       C  0.86626432  0.56527696  0.63018668    -0.13800
C2462       C  0.86574112  0.54755327  0.64275245    -0.11500
C2463       C  0.84672218  0.53914384  0.64923172     0.01800
C2464       C  0.82825857  0.54951645  0.64417621    -0.23700
H2465       H  0.87796997  0.62118041  0.57735975     0.09800
H2466       H  0.88051412  0.59375224  0.60240191     0.13300
H2467       H  0.81159548  0.62380689  0.58543484     0.12100
H2468       H  0.79437121  0.60026471  0.60879292     0.13200
H2469       H  0.79507793  0.57086283  0.63242289     0.12300
H2470       H  0.88143113  0.57069748  0.62551088     0.09400
H2471       H  0.88023134  0.53994300  0.64670484     0.12600
H2472       H  0.81346755  0.54332277  0.64944543     0.14500
C2473       C  0.84143881  0.63845448  0.47509936    -0.01000
C2474       C  0.85930199  0.63605688  0.46293114    -0.09000
C2475       C  0.85871751  0.62437407  0.44469865    -0.17900
C2476       C  0.84007869  0.61475596  0.43796863     0.04500
C2477       C  0.82183434  0.61790179  0.45001008     0.18700
C2478       C  0.82271397  0.62948656  0.46840145    -0.19300
C2479       C  0.80282280  0.60936063  0.44371866    -0.20600
C2480       C  0.80155341  0.59744841  0.42581350    -0.19100
C2481       C  0.81933709  0.59345794  0.41394874     0.20100
C2482       C  0.83888348  0.60202122  0.41987612     0.02200
C2483       C  0.85646680  0.59701916  0.40771904    -0.13800
C2484       C  0.85478551  0.58381294  0.39071371    -0.11500
C2485       C  0.83555805  0.57535257  0.38497946     0.01800
C2486       C  0.81779340  0.58052756  0.39644895    -0.23700
H2487       H  0.87388429  0.64302874  0.46765552     0.09800
H2488       H  0.87312090  0.62321610  0.43621412     0.13300
H2489       H  0.80869711  0.63153104  0.47754579     0.12100
H2490       H  0.78882602  0.61185215  0.45276355     0.13200
H2491       H  0.78661610  0.59099228  0.42142535     0.12300
H2492       H  0.87185770  0.60267023  0.41119209     0.09400
H2493       H  0.86872991  0.58011135  0.38202870     0.12600
H2494       H  0.80287262  0.57393442  0.39217148     0.14500
C2495       C  0.78892611  0.71328650  0.51693145    -0.01000
C2496       C  0.78419704  0.71614060  0.49596686    -0.09000
C2497       C  0.76847758  0.72974107  0.48987029    -0.17900
C2498       C  0.75723007  0.74139418  0.50465842     0.04500
C2499       C  0.76214522  0.73845462  0.52597112     0.18700
C2500       C  0.77758329  0.72417507  0.53191408    -0.19300
C2501       C  0.75202877  0.75018492  0.54117826    -0.20600
C2502       C  0.73750655  0.76517971  0.53566893    -0.19100
C2503       C  0.73241395  0.76849455  0.51485266     0.20100
C2504       C  0.74176173  0.75628971  0.49904833     0.02200
C2505       C  0.73533276  0.75970287  0.47833311    -0.13800
C2506       C  0.72079797  0.77507750  0.47352128    -0.11500
C2507       C  0.71247234  0.78765086  0.48909232     0.01800
C2508       C  0.71815537  0.78414551  0.50972913    -0.23700
H2509       H  0.79278032  0.70780376  0.48415657     0.09800
H2510       H  0.76592394  0.73118519  0.47344035     0.13300
H2511       H  0.78137433  0.72216663  0.54816410     0.12100
H2512       H  0.75570203  0.74806104  0.55742929     0.13200
H2513       H  0.73026468  0.77431739  0.54778325     0.12300
H2514       H  0.74119825  0.75075521  0.46550670     0.09400
H2515       H  0.71645318  0.77749272  0.45748292     0.12600
H2516       H  0.71141909  0.79364856  0.52186967     0.14500
C2517       C  0.87205177  0.97462775  0.66229409    -0.01000
C2518       C  0.87663515  0.96536635  0.68140176    -0.09000
C2519       C  0.88886098  0.94753553  0.68255904    -0.17900
C2520       C  0.89729709  0.93843178  0.66451849     0.04500
C2521       C  0.89329923  0.94832423  0.64518039     0.18700
C2522       C  0.88043169  0.96602664  0.64418038    -0.19300
C2523       C  0.90234227  0.94058823  0.62702461    -0.20600
C2524       C  0.91529667  0.92328305  0.62765757    -0.19100
C2525       C  0.91905695  0.91289599  0.64636686     0.20100
C2526       C  0.90979227  0.92006609  0.66502416     0.02200
C2527       C  0.91323954  0.90837303  0.68330848    -0.13800
C2528       C  0.92575721  0.89062824  0.68312323    -0.11500
C2529       C  0.93543929  0.88406231  0.66484746     0.01800
C2530       C  0.93195448  0.89526876  0.64650306    -0.23700
H2531       H  0.87051397  0.97184172  0.69564383     0.09800
H2532       H  0.89170325  0.94146612  0.69785527     0.13300
H2533       H  0.87730191  0.97335996  0.62937652     0.12100
H2534       H  0.89955523  0.94810527  0.61225235     0.13200
H2535       H  0.92223892  0.91783660  0.61335229     0.12300
H2536       H  0.90624951  0.91235086  0.69794930     0.09400
H2537       H  0.92805192  0.88213532  0.69743827     0.12600
H2538       H  0.93912816  0.89012237  0.63219035     0.14500
C2539       C  0.03777226  0.85814654  0.66040612    -0.01000
C2540       C  0.05021313  0.85717076  0.67817489    -0.09000
C2541       C  0.06842696  0.86880653  0.67968406    -0.17900
C2542       C  0.07466446  0.88222639  0.66348505     0.04500
C2543       C  0.06217310  0.88287197  0.64528512     0.18700
C2544       C  0.04410754  0.87060353  0.64376459    -0.19300
C2545       C  0.06738534  0.89629944  0.62902402    -0.20600
C2546       C  0.08443999  0.90950510  0.63063816    -0.19100
C2547       C  0.09689574  0.90939933  0.64843099     0.20100
C2548       C  0.09245172  0.89547560  0.66495663     0.02200
C2549       C  0.10585192  0.89565763  0.68235420    -0.13800
C2550       C  0.12252627  0.90950826  0.68354195    -0.11500
C2551       C  0.12647138  0.92360640  0.66750679     0.01800
C2552       C  0.11369828  0.92330172  0.64987580    -0.23700
H2553       H  0.04562389  0.84759761  0.69122614     0.09800
H2554       H  0.07690195  0.86738218  0.69399307     0.13300
H2555       H  0.03440994  0.87157698  0.63005865     0.12100
H2556       H  0.05795489  0.89690140  0.61512311     0.13200
H2557       H  0.08782829  0.91998919  0.61792236     0.12300
H2558       H  0.10390019  0.88532255  0.69533572     0.09400
H2559       H  0.13230770  0.90925047  0.69719819     0.12600
H2560       H  0.11675270  0.93400249  0.63724715     0.14500
C2561       C  0.94364759  0.79061241  0.61875169    -0.01000
C2562       C  0.95344351  0.78015890  0.60238329    -0.09000
C2563       C  0.94206786  0.76692285  0.58933407    -0.17900
C2564       C  0.92042991  0.76382173  0.59228895     0.04500
C2565       C  0.91057558  0.77518068  0.60844463     0.18700
C2566       C  0.92215280  0.78825412  0.62138021    -0.19300
C2567       C  0.88920323  0.77321603  0.61194850    -0.20600
C2568       C  0.87736304  0.75970499  0.60015977    -0.19100
C2569       C  0.88661110  0.74772031  0.58464474     0.20100
C2570       C  0.90820234  0.74967498  0.58020195     0.02200
C2571       C  0.91651300  0.73700643  0.56425322    -0.13800
C2572       C  0.90395581  0.72263262  0.55368775    -0.11500
C2573       C  0.88281552  0.72052559  0.55865153     0.01800
C2574       C  0.87429306  0.73342176  0.57389957    -0.23700
H2575       H  0.97002334  0.78189769  0.59989596     0.09800
H2576       H  0.95061926  0.75917827  0.57722712     0.13300
H2577       H  0.91432789  0.79650641  0.63377999     0.12100
H2578       H  0.88161379  0.78199165  0.62412030     0.13200
H2579       H  0.86087890  0.75833336  0.60348135     0.12300
H2580       H  0.93269548  0.73761591  0.55988502     0.09400
H2581       H  0.91089940  0.71287278  0.54190906     0.12600
H2582       H  0.85792044  0.73208270  0.57778001     0.14500
C2583       C  0.16339631  0.57619420  0.61988011    -0.01000
C2584       C  0.14458599  0.57735771  0.60902248    -0.09000
C2585       C  0.14266927  0.58990403  0.59152239    -0.17900
C2586       C  0.15966075  0.60175789  0.58416068     0.04500
C2587       C  0.17863790  0.60086406  0.59547257     0.18700
C2588       C  0.18029456  0.58825656  0.61320329    -0.19300
C2589       C  0.19596228  0.61223658  0.58878895    -0.20600
C2590       C  0.19501347  0.62412419  0.57081539    -0.19100
C2591       C  0.17665440  0.62509586  0.55919323     0.20100
C2592       C  0.15860302  0.61417537  0.56583045     0.02200
C2593       C  0.14034958  0.61602900  0.55369896    -0.13800
C2594       C  0.14014099  0.62796949  0.53564030    -0.11500
C2595       C  0.15807436  0.63828900  0.52896089     0.01800
C2596       C  0.17627626  0.63683964  0.54084983    -0.23700
H2597       H  0.13126666  0.56825308  0.61389221     0.09800
H2598       H  0.12774164  0.58970029  0.58395979     0.13300
H2599       H  0.19491117  0.58750322  0.62154847     0.12100
H2600       H  0.21044544  0.61170186  0.59736322     0.13200
H2601       H  0.20878411  0.63253145  0.56590455     0.12300
H2602       H  0.12595608  0.60842413  0.55767241     0.09400
H2603       H  0.12594442  0.62880893  0.52664467     0.12600
H2604       H  0.19022702  0.64488786  0.53580981     0.14500
C2605       C  0.16704523  0.38140890  0.57822435    -0.01000
C2606       C  0.14823190  0.38790365  0.58695945    -0.09000
C2607       C  0.14745025  0.40521444  0.59984718    -0.17900
C2608       C  0.16554544  0.41694952  0.60405980     0.04500
C2609       C  0.18468189  0.41018033  0.59522548     0.18700
C2610       C  0.18532903  0.39231173  0.58275988    -0.19300
C2611       C  0.20291682  0.42162497  0.59838100    -0.20600
C2612       C  0.20244742  0.44003621  0.60959001    -0.19100
C2613       C  0.18381098  0.44722232  0.61825474     0.20100
C2614       C  0.16519602  0.43551639  0.61612326     0.02200
C2615       C  0.14699396  0.44308548  0.62593524    -0.13800
C2616       C  0.14712474  0.46188580  0.63669521    -0.11500
C2617       C  0.16527465  0.47377459  0.63792529     0.01800
C2618       C  0.18363600  0.46620726  0.62889120    -0.23700
H2619       H  0.13394803  0.37956469  0.58373767     0.09800
H2620       H  0.13234059  0.40930043  0.60577063     0.13300
H2621       H  0.19991896  0.38737861  0.57589733     0.12100
H2622       H  0.21754852  0.41656277  0.59172510     0.13200
H2623       H  0.21673853  0.44879880  0.61136712     0.12300
H2624       H  0.13240980  0.43486755  0.62562787     0.09400
H2625       H  0.13285662  0.46728238  0.64382949     0.12600
H2626       H  0.19790045  0.47511792  0.63016433     0.14500
C2627       C  0.29598716  0.47940176  0.78010607    -0.01000
C2628       C  0.29508999  0.50042167  0.77464476    -0.09000
C2629       C  0.28249321  0.50715827  0.75840788    -0.17900
C2630       C  0.26985522  0.49304297  0.74736590     0.04500
C2631       C  0.27060819  0.47171131  0.75313286     0.18700
C2632       C  0.28401636  0.46502361  0.76903006    -0.19300
C2633       C  0.25741453  0.45734862  0.74353085    -0.20600
C2634       C  0.24280419  0.46387560  0.72902976    -0.19100
C2635       C  0.24152843  0.48480638  0.72327711     0.20100
C2636       C  0.25569729  0.49952021  0.73160464     0.02200
C2637       C  0.25470615  0.52018105  0.72414408    -0.13800
C2638       C  0.23902116  0.52635786  0.71051620    -0.11500
C2639       C  0.22390183  0.51219809  0.70398716     0.01800
C2640       C  0.22570803  0.49127811  0.70976804    -0.23700
H2641       H  0.30420259  0.51179184  0.78304429     0.09800
H2642       H  0.28241398  0.52361748  0.75540200     0.13300
H2643       H  0.28443137  0.44876941  0.77341916     0.12100
H2644       H  0.25787648  0.44107741  0.74781586     0.13200
H2645       H  0.23224785  0.45251980  0.72247366     0.12300
H2646       H  0.26567218  0.53196594  0.72874180     0.09400
H2647       H  0.23821014  0.54248686  0.70579783     0.12600
H2648       H  0.21439649  0.48009291  0.70421133     0.14500
C2649       C  0.14045424  0.66057743  0.98189168    -0.01000
C2650       C  0.13897894  0.67973316  0.97172002    -0.09000
C2651       C  0.12923101  0.68140044  0.95253989    -0.17900
C2652       C  0.12021306  0.66387408  0.94296857     0.04500
C2653       C  0.12176224  0.64440086  0.95336158     0.18700
C2654       C  0.13208409  0.64286983  0.97251645    -0.19300
C2655       C  0.11264856  0.62666825  0.94477116    -0.20600
C2656       C  0.10160253  0.62792015  0.92631949    -0.19100
C2657       C  0.09960669  0.64688361  0.91588523     0.20100
C2658       C  0.10923425  0.66507859  0.92377340     0.02200
C2659       C  0.10713655  0.68370866  0.91224092    -0.13800
C2660       C  0.09520854  0.68436258  0.89415544    -0.11500
C2661       C  0.08506400  0.66654503  0.88699996     0.01800
C2662       C  0.08767763  0.64779360  0.89774686    -0.23700
H2663       H  0.14549303  0.69361338  0.97863107     0.09800
H2664       H  0.12869914  0.69670622  0.94583218     0.13300
H2665       H  0.13309064  0.62802232  0.98039681     0.12100
H2666       H  0.11375821  0.61179053  0.95256122     0.13200
H2667       H  0.09439559  0.61397344  0.92025976     0.12300
H2668       H  0.11437220  0.69806822  0.91682575     0.09400
H2669       H  0.09362144  0.69896597  0.88596085     0.12600
H2670       H  0.08014357  0.63382152  0.89213328     0.14500
C2671       C  0.89166966  0.66199656  0.92621420    -0.01000
C2672       C  0.90123672  0.64311636  0.92123084    -0.09000
C2673       C  0.91895804  0.64256820  0.90869990    -0.17900
C2674       C  0.92795991  0.66105628  0.90093019     0.04500
C2675       C  0.91831657  0.68021281  0.90623103     0.18700
C2676       C  0.90017373  0.68048784  0.91844338    -0.19300
C2677       C  0.92710128  0.69901409  0.89970930    -0.20600
C2678       C  0.94554566  0.69924949  0.88841996    -0.19100
C2679       C  0.95536965  0.68066926  0.88286475     0.20100
C2680       C  0.94645008  0.66127447  0.88856093     0.02200
C2681       C  0.95647246  0.64297952  0.88163379    -0.13800
C2682       C  0.97492159  0.64393142  0.87017199    -0.11500
C2683       C  0.98410928  0.66305229  0.86538942     0.01800
C2684       C  0.97413718  0.68137804  0.87167184    -0.23700
H2685       H  0.89502527  0.62862036  0.92712133     0.09800
H2686       H  0.92551747  0.62746035  0.90579292     0.13300
H2687       H  0.89301635  0.69519870  0.92241760     0.12100
H2688       H  0.91987504  0.71367252  0.90372056     0.13200
H2689       H  0.95215853  0.71408787  0.88396542     0.12300
H2690       H  0.95038541  0.62769089  0.88470488     0.09400
H2691       H  0.98222957  0.62957785  0.86534053     0.12600
H2692       H  0.98096969  0.69628455  0.86777570     0.14500
C2693       C  0.02923592  0.71415803  0.78764958    -0.01000
C2694       C  0.03270335  0.73533003  0.79123535    -0.09000
C2695       C  0.02592537  0.75029264  0.77698711    -0.17900
C2696       C  0.01548241  0.74446079  0.75856903     0.04500
C2697       C  0.01270087  0.72289022  0.75475983     0.18700
C2698       C  0.01942040  0.70810495  0.76925107    -0.19300
C2699       C  0.00307062  0.71611324  0.73655909    -0.20600
C2700       C  0.99604314  0.73029841  0.72196499    -0.19100
C2701       C  0.99812942  0.75163553  0.72536039     0.20100
C2702       C  0.00767274  0.75911868  0.74378783     0.02200
C2703       C  0.00869095  0.78089896  0.74663161    -0.13800
C2704       C  0.00074913  0.79455703  0.73169918    -0.11500
C2705       C  0.99189110  0.78699364  0.71337419     0.01800
C2706       C  0.99066149  0.76552562  0.71034172    -0.23700
H2707       H  0.04036202  0.74039051  0.80529287     0.09800
H2708       H  0.02906208  0.76627541  0.78081427     0.13300
H2709       H  0.01684791  0.69174483  0.76620787     0.12100
H2710       H  0.00098941  0.69968602  0.73355603     0.13200
H2711       H  0.98873406  0.72452449  0.70798137     0.12300
H2712       H  0.01542007  0.78783230  0.76025983     0.09400
H2713       H  0.00203094  0.81112983  0.73425902     0.12600
H2714       H  0.98375366  0.75958412  0.69621178     0.14500
C2715       C  0.13389081  0.56172621  0.72140022    -0.01000
C2716       C  0.14411934  0.57800979  0.73155845    -0.09000
C2717       C  0.13424635  0.58953456  0.74690456    -0.17900
C2718       C  0.11350254  0.58528502  0.75276288     0.04500
C2719       C  0.10325942  0.56830945  0.74301451     0.18700
C2720       C  0.11346303  0.55673351  0.72741439    -0.19300
C2721       C  0.08284255  0.56322223  0.74875514    -0.20600
C2722       C  0.07223951  0.57491662  0.76356693    -0.19100
C2723       C  0.08165231  0.59219315  0.77284779     0.20100
C2724       C  0.10250480  0.59751049  0.76768032     0.02200
C2725       C  0.11127341  0.61521044  0.77724634    -0.13800
C2726       C  0.09966074  0.62745768  0.79076037    -0.11500
C2727       C  0.07895377  0.62254728  0.79546647     0.01800
C2728       C  0.07016803  0.60456675  0.78681519    -0.23700
H2729       H  0.15995445  0.58211939  0.72748625     0.09800
H2730       H  0.14334678  0.60174923  0.75377627     0.13300
H2731       H  0.10542107  0.54406767  0.71979867     0.12100
H2732       H  0.07493311  0.55021927  0.74159078     0.13200
H2733       H  0.05639049  0.57066945  0.76746942     0.12300
H2734       H  0.12693372  0.62036988  0.77429639     0.09400
H2735       H  0.10693440  0.64112682  0.79732470     0.12600
H2736       H  0.05417217  0.60057454  0.79039719     0.14500
loop_ 
_geom_bond_atom_site_label_1 
_geom_bond_atom_site_label_2 
_geom_bond_distance 
_geom_bond_site_symmetry_2 
_ccdc_geom_bond_type 
O1            C4   1.269       .  A
O1           Cd6   2.488       .  S
C2           O11   1.264       .  A
C2            O7   1.270       .  A
C2         C2661   1.477       .  S
O3            C9   1.270       .  A
O3           Cd6   2.487       .  S
C4           O12   1.266       .  A
C4         C2693   1.481       .  S
C5           O10   1.270       .  A
C5            O8   1.266       .  A
C5         C2727   1.485       .  S
Cd6          O13   2.451       .  S
Cd6          O12   2.435       .  S
Cd6          O11   2.416       .  S
Cd6           O7   2.487       .  S
Cd6          O10   2.505       .  S
Cd6           O8   2.434       .  S
C9           O13   1.264       .  A
C9         C2683   1.481   1_455  S
O14          C17   1.270       .  A
O14         Cd19   2.472       .  S
C15          O24   1.266       .  A
C15          O20   1.268       .  A
C15        C2583   1.479       .  S
O16          C22   1.272       .  A
O16         Cd19   2.482       .  S
C17          O25   1.265       .  A
C17        C2639   1.474       .  S
C18          O23   1.270       .  A
C18          O21   1.264       .  A
C18        C2715   1.487       .  S
Cd19         O26   2.417       .  S
Cd19         O25   2.424       .  S
Cd19         O24   2.440       .  S
Cd19         O20   2.476       .  S
Cd19         O23   2.535       .  S
Cd19         O21   2.417       .  S
C22          O26   1.265       .  A
C22        C2617   1.477       .  S
O27          C30   1.269       .  A
O27         Cd32   2.494       .  S
C28          O37   1.266       .  A
C28          O33   1.268       .  A
C28        C2705   1.479       .  S
O29          C35   1.270       .  A
O29         Cd32   2.503       .  S
C30          O38   1.264       .  A
C30        C2529   1.482       .  S
C31          O36   1.261       .  A
C31          O34   1.269       .  A
C31        C2539   1.475       .  S
Cd32         O39   2.430       .  S
Cd32         O38   2.452       .  S
Cd32         O37   2.452       .  S
Cd32         O33   2.485       .  S
Cd32         O36   2.416   1_655  S
Cd32         O34   2.505   1_655  S
C35          O39   1.267       .  A
C35        C2561   1.484       .  S
O40          C43   1.268       .  A
O40         Cd45   2.476       .  S
C41          O50   1.265       .  A
C41          O46   1.269       .  A
C41        C2495   1.474       .  S
O42          C48   1.270       .  A
O42         Cd45   2.520       .  S
C43          O51   1.265       .  A
C43        C2451   1.480       .  S
C44          O49   1.271       .  A
C44          O47   1.265       .  A
C44        C2473   1.480       .  S
Cd45         O52   2.413       .  S
Cd45         O51   2.458       .  S
Cd45         O50   2.434       .  S
Cd45         O46   2.487       .  S
Cd45         O49   2.488       .  S
Cd45         O47   2.433       .  S
C48          O52   1.264       .  A
C48        C2573   1.483       .  S
O53          C56   1.268       .  A
O53         Cd58   2.486       .  S
C54          O63   1.265       .  A
C54          O59   1.269       .  A
C54        C2627   1.476       .  S
O55          C61   1.270       .  A
O55         Cd58   2.514       .  S
C56          O64   1.264       .  A
C56        C2385   1.481       .  S
C57          O62   1.271       .  A
C57          O60   1.265       .  A
C57        C2407   1.478       .  S
Cd58         O65   2.427       .  S
Cd58         O64   2.455       .  S
Cd58         O63   2.437       .  S
Cd58         O59   2.497       .  S
Cd58         O62   2.493       .  S
Cd58         O60   2.422       .  S
C61          O65   1.265       .  A
C61        C2429   1.485       .  S
O66          C69   1.268       .  A
O66         Cd71   2.485       .  S
C67          O76   1.266       .  A
C67          O72   1.269       .  A
C67        C2319   1.479       .  S
O68          C74   1.271       .  A
O68         Cd71   2.520   1_554  S
C69          O77   1.265       .  A
C69        C2363   1.478       .  S
C70          O75   1.272       .  A
C70          O73   1.266       .  A
C70        C2441   1.486       .  S
Cd71         O78   2.434       .  S
Cd71         O77   2.441       .  S
Cd71         O76   2.447       .  S
Cd71         O72   2.468       .  S
Cd71         O75   2.509       .  S
Cd71         O73   2.430       .  S
C74          O78   1.263   1_554  A
C74        C2341   1.486       .  S
O79          C82   1.270       .  A
O79         Cd84   2.490       .  S
C80          O89   1.264       .  A
C80          O85   1.270       .  A
C80        C2231   1.481       .  S
O81          C87   1.264       .  A
O81         Cd84   2.437       .  S
C82          O90   1.265       .  A
C82        C2275   1.479       .  S
C83          O88   1.270       .  A
C83          O86   1.267       .  A
C83        C2297   1.482       .  S
Cd84         O91   2.480       .  S
Cd84         O90   2.427       .  S
Cd84         O89   2.432       .  S
Cd84         O85   2.495       .  S
Cd84         O88   2.496       .  S
Cd84         O86   2.418       .  S
C87          O91   1.269       .  A
C87        C2253   1.477       .  S
O92          C95   1.269       .  A
O92         Cd97   2.472       .  S
C93         O102   1.265       .  A
C93          O98   1.268       .  A
C93        C2187   1.478       .  S
O94         C100   1.270       .  A
O94         Cd97   2.499       .  S
C95         O103   1.265       .  A
C95        C2375   1.476       .  S
C96         O101   1.271       .  A
C96          O99   1.266       .  A
C96        C2309   1.481       .  S
Cd97        O104   2.435       .  S
Cd97        O103   2.444       .  S
Cd97        O102   2.440       .  S
Cd97         O98   2.485       .  S
Cd97        O101   2.497       .  S
Cd97         O99   2.409       .  S
C100        O104   1.263       .  A
C100       C2221   1.482   1_554  S
O105        C108   1.267       .  A
O105       Cd110   2.474       .  S
C106        O115   1.266       .  A
C106        O111   1.268       .  A
C106       C2507   1.471       .  S
O107        C113   1.271       .  A
O107       Cd110   2.508       .  S
C108        O116   1.264       .  A
C108       C2121   1.477       .  S
C109        O114   1.271       .  A
C109        O112   1.264       .  A
C109       C2143   1.481       .  S
Cd110       O117   2.431       .  S
Cd110       O116   2.437       .  S
Cd110       O115   2.427       .  S
Cd110       O111   2.461       .  S
Cd110       O114   2.503       .  S
Cd110       O112   2.435       .  S
C113        O117   1.263       .  A
C113       C2165   1.484       .  S
O118        C121   1.266       .  A
O118       Cd123   2.490       .  S
C119        O128   1.264       .  A
C119        O124   1.267       .  A
C119       C2111   1.472       .  S
O120        C126   1.272       .  A
O120       Cd123   2.495       .  S
C121        O129   1.263       .  A
C121       C2055   1.478       .  S
C122        O127   1.269       .  A
C122        O125   1.261       .  A
C122       C2077   1.486       .  S
Cd123       O130   2.437       .  S
Cd123       O129   2.459       .  S
Cd123       O128   2.432       .  S
Cd123       O124   2.480       .  S
Cd123       O127   2.525   1_565  S
Cd123       O125   2.447   1_565  S
C126        O130   1.267       .  A
C126       C2177   1.485       .  S
O131        C134   1.270       .  A
O131       Cd136   2.464       .  S
C132        O141   1.267       .  A
C132        O137   1.268       .  A
C132       C2001   1.478       .  S
O133        C139   1.272   1_545  A
O133       Cd136   2.523       .  S
C134        O142   1.267       .  A
C134       C2099   1.476       .  S
C135        O140   1.272       .  A
C135        O138   1.265       .  A
C135       C2045   1.482       .  S
Cd136       O143   2.400       .  S
Cd136       O142   2.423       .  S
Cd136       O141   2.445       .  S
Cd136       O137   2.464       .  S
Cd136       O140   2.507       .  S
Cd136       O138   2.412       .  S
C139        O143   1.262   1_565  A
C139       C2011   1.479       .  S
O144        C147   1.268       .  A
O144       Cd149   2.460       .  S
C145        O154   1.266       .  A
C145        O150   1.269       .  A
C145       C2287   1.472       .  S
O146        C152   1.272       .  A
O146       Cd149   2.494       .  S
C147        O155   1.266       .  A
C147       C1945   1.477       .  S
C148        O153   1.262       .  A
C148        O151   1.271       .  A
C148       C1967   1.478       .  S
Cd149       O156   2.417       .  S
Cd149       O155   2.449       .  S
Cd149       O154   2.425       .  S
Cd149       O150   2.469       .  S
Cd149       O153   2.409       .  S
Cd149       O151   2.499       .  S
C152        O156   1.267       .  A
C152       C2033   1.483       .  S
O157        C160   1.271       .  A
O157       Cd162   2.480       .  S
C158        O167   1.266       .  A
C158        O163   1.271       .  A
C158       C1891   1.477       .  S
O159        C165   1.273       .  A
O159       Cd162   2.514       .  S
C160        O168   1.266       .  A
C160       C1913   1.475       .  S
C161        O166   1.273       .  A
C161        O164   1.267       .  A
C161       C1923   1.485       .  S
Cd162       O169   2.404       .  S
Cd162       O168   2.392       .  S
Cd162       O167   2.406       .  S
Cd162       O163   2.479       .  S
Cd162       O166   2.485       .  S
Cd162       O164   2.442       .  S
C165        O169   1.264       .  A
C165       C2397   1.483       .  S
O170        C173   1.266       .  A
O170       Cd175   2.416       .  S
C171        O180   1.265       .  A
C171        O176   1.271       .  A
C171       C1835   1.481       .  S
O172        C178   1.264   1_556  A
O172       Cd175   2.419       .  S
C173        O181   1.272       .  A
C173       C1857   1.475       .  S
C174        O179   1.272       .  A
C174        O177   1.267       .  A
C174       C1935   1.484       .  S
Cd175       O182   2.502       .  S
Cd175       O181   2.477       .  S
Cd175       O180   2.435       .  S
Cd175       O176   2.485       .  S
Cd175       O179   2.476       .  S
Cd175       O177   2.450       .  S
C178        O182   1.272   1_554  A
C178       C1989   1.480       .  S
O183        C186   1.269       .  A
O183       Cd188   2.471       .  S
C184        O193   1.266       .  A
C184        O189   1.269       .  A
C184       C1791   1.474       .  S
O185        C191   1.272       .  A
O185       Cd188   2.502       .  S
C186        O194   1.266       .  A
C186       C2265   1.479       .  S
C187        O192   1.271       .  A
C187        O190   1.264       .  A
C187       C1769   1.485       .  S
Cd188       O195   2.416       .  S
Cd188       O194   2.441       .  S
Cd188       O193   2.422       .  S
Cd188       O189   2.463       .  S
Cd188       O192   2.506       .  S
Cd188       O190   2.437       .  S
C191        O195   1.265       .  A
C191       C1813   1.482       .  S
O196        C199   1.269       .  A
O196       Cd201   2.466       .  S
C197        O206   1.265       .  A
C197        O202   1.268       .  A
C197       C1725   1.479       .  S
O198        C204   1.270       .  A
O198       Cd201   2.512   1_556  S
C199        O207   1.266       .  A
C199       C1869   1.474       .  S
C200        O205   1.271       .  A
C200        O203   1.265       .  A
C200       C1825   1.481       .  S
Cd201       O208   2.414       .  S
Cd201       O207   2.433       .  S
Cd201       O206   2.461       .  S
Cd201       O202   2.456       .  S
Cd201       O205   2.484       .  S
Cd201       O203   2.427       .  S
C204        O208   1.262   1_556  A
C204       C1747   1.478       .  S
O209        C212   1.267       .  A
O209       Cd214   2.483       .  S
C210        O219   1.266       .  A
C210        O215   1.269       .  A
C210       C1901   1.470       .  S
O211        C217   1.271       .  A
O211       Cd214   2.525       .  S
C212        O220   1.264       .  A
C212       C1659   1.479       .  S
C213        O218   1.261       .  A
C213        O216   1.268       .  A
C213       C1681   1.480       .  S
Cd214       O221   2.419       .  S
Cd214       O220   2.445       .  S
Cd214       O219   2.419       .  S
Cd214       O215   2.479       .  S
Cd214       O218   2.440       .  S
Cd214       O216   2.506       .  S
C217        O221   1.265       .  A
C217       C1703   1.485       .  S
O222        C225   1.268       .  A
O222       Cd227   2.501       .  S
C223        O232   1.265       .  A
C223        O228   1.268       .  A
C223       C2209   1.484       .  S
O224        C230   1.269       .  A
O224       Cd227   2.530   1_565  S
C225        O233   1.265       .  A
C225       C1637   1.480       .  S
C226        O231   1.271       .  A
C226        O229   1.266       .  A
C226       C1715   1.486       .  S
Cd227       O234   2.427   1_545  S
Cd227       O233   2.447       .  S
Cd227       O232   2.466       .  S
Cd227       O228   2.497       .  S
Cd227       O231   2.521       .  S
Cd227       O229   2.420       .  S
C230        O234   1.262       .  A
C230       C1615   1.483       .  S
O235        C238   1.269       .  A
O235       Cd240   2.500       .  S
C236        O245   1.265       .  A
C236        O241   1.270       .  A
C236       C1571   1.476       .  S
O237        C243   1.270       .  A
O237       Cd240   2.491       .  S
C238        O246   1.263       .  A
C238       C1527   1.480       .  S
C239        O244   1.268       .  A
C239        O242   1.263       .  A
C239       C1549   1.482       .  S
Cd240       O247   2.436       .  S
Cd240       O246   2.429       .  S
Cd240       O245   2.421       .  S
Cd240       O241   2.487       .  S
Cd240       O244   2.504       .  S
Cd240       O242   2.439       .  S
C243        O247   1.266       .  A
C243       C1593   1.483       .  S
O248        C251   1.271       .  A
O248       Cd253   2.471       .  S
C249        O258   1.266       .  A
C249        O254   1.270       .  A
C249       C1649   1.482       .  S
O250        C256   1.272       .  A
O250       Cd253   2.506       .  S
C251        O259   1.266       .  A
C251       C2551   1.480       .  S
C252        O257   1.264   1_545  A
C252        O255   1.272       .  A
C252       C1505   1.483       .  S
Cd253       O260   2.437       .  S
Cd253       O259   2.443       .  S
Cd253       O258   2.440       .  S
Cd253       O254   2.492       .  S
Cd253       O257   2.431       .  S
Cd253       O255   2.503   1_565  S
C256        O260   1.266       .  A
C256       C1605   1.486       .  S
O261        C264   1.268       .  A
O261       Cd266   2.469       .  S
C262        O271   1.265       .  A
C262        O267   1.268       .  A
C262       C1461   1.477       .  S
O263        C269   1.268       .  A
O263       Cd266   2.484       .  S
C264        O272   1.266       .  A
C264       C1583   1.475       .  S
C265        O270   1.269       .  A
C265        O268   1.265       .  A
C265       C1495   1.482       .  S
Cd266       O273   2.439       .  S
Cd266       O272   2.441       .  S
Cd266       O271   2.443       .  S
Cd266       O267   2.471       .  S
Cd266       O270   2.509       .  S
Cd266       O268   2.426       .  S
C269        O273   1.262       .  A
C269       C2595   1.476       .  S
O274        C277   1.269       .  A
O274       Cd279   2.468       .  S
C275        O284   1.266       .  A
C275        O280   1.271       .  A
C275       C1451   1.476       .  S
O276        C282   1.272       .  A
O276       Cd279   2.511       .  S
C277        O285   1.266       .  A
C277       C1429   1.479       .  S
C278        O283   1.263   1_655  A
C278        O281   1.272       .  A
C278       C2067   1.480       .  S
Cd279       O286   2.408       .  S
Cd279       O285   2.456       .  S
Cd279       O284   2.418       .  S
Cd279       O280   2.494       .  S
Cd279       O283   2.407       .  S
Cd279       O281   2.502   1_455  S
C282        O286   1.267       .  A
C282       C1483   1.481       .  S
O287        C290   1.269       .  A
O287       Cd292   2.490       .  S
C288        O297   1.264       .  A
C288        O293   1.268       .  A
C288       C2485   1.478       .  S
O289        C295   1.268       .  A
O289       Cd292   2.502       .  S
C290        O298   1.264       .  A
C290       C1803   1.471       .  S
C291        O296   1.271       .  A
C291        O294   1.267       .  A
C291       C1407   1.480       .  S
Cd292       O299   2.422       .  S
Cd292       O298   2.421       .  S
Cd292       O297   2.427       .  S
Cd292       O293   2.497       .  S
Cd292       O296   2.486       .  S
Cd292       O294   2.420       .  S
C295        O299   1.263       .  A
C295       C1373   1.479       .  S
O300        C303   1.269       .  A
O300       Cd305   2.470       .  S
C301        O310   1.265       .  A
C301        O306   1.269       .  A
C301       C1439   1.477       .  S
O302        C308   1.271       .  A
O302       Cd305   2.495       .  S
C303        O311   1.265       .  A
C303       C1341   1.479       .  S
C304        O309   1.263   1_455  A
C304        O307   1.269   1_455  A
C304       C1363   1.478       .  S
Cd305       O312   2.420       .  S
Cd305       O311   2.444       .  S
Cd305       O310   2.423       .  S
Cd305       O306   2.497       .  S
Cd305       O309   2.416       .  S
Cd305       O307   2.499       .  S
C308        O312   1.266       .  A
C308       C1395   1.481       .  S
O313        C316   1.269       .  A
O313       Cd318   2.473       .  S
C314        O323   1.265       .  A
C314        O319   1.268       .  A
C314       C1275   1.481       .  S
O315        C321   1.272       .  A
O315       Cd318   2.506   1_545  S
C316        O324   1.266       .  A
C316       C1285   1.477       .  S
C317        O322   1.263       .  A
C317        O320   1.271       .  A
C317       C1307   1.485       .  S
Cd318       O325   2.423       .  S
Cd318       O324   2.448       .  S
Cd318       O323   2.453       .  S
Cd318       O319   2.479       .  S
Cd318       O322   2.411       .  S
Cd318       O320   2.527       .  S
C321        O325   1.264   1_545  A
C321       C1847   1.481       .  S
O326        C329   1.270       .  A
O326       Cd331   2.494       .  S
C327        O336   1.265       .  A
C327        O332   1.269       .  A
C327       C2155   1.483       .  S
O328        C334   1.264       .  A
O328       Cd331   2.410       .  S
C329        O337   1.265       .  A
C329       C1241   1.480       .  S
C330        O335   1.265       .  A
C330        O333   1.270       .  A
C330       C1319   1.485       .  S
Cd331       O338   2.503       .  S
Cd331       O337   2.448       .  S
Cd331       O336   2.455       .  S
Cd331       O332   2.486       .  S
Cd331       O335   2.441       .  S
Cd331       O333   2.514       .  S
C334        O338   1.271       .  A
C334       C1539   1.478       .  S
O339        C342   1.269       .  A
O339       Cd344   2.467       .  S
C340        O349   1.266       .  A
C340        O345   1.269       .  A
C340       C1297   1.477       .  S
O341        C347   1.271       .  A
O341       Cd344   2.525       .  S
C342        O350   1.264       .  A
C342       C1209   1.476       .  S
C343        O348   1.272       .  A
C343        O346   1.265   1_565  A
C343       C2517   1.480       .  S
Cd344       O351   2.409       .  S
Cd344       O350   2.434       .  S
Cd344       O349   2.437       .  S
Cd344       O345   2.481       .  S
Cd344       O348   2.507   1_545  S
Cd344       O346   2.417       .  S
C347        O351   1.264       .  A
C347       C1231   1.485       .  S
O352        C355   1.269       .  A
O352       Cd357   2.509       .  S
C353        O362   1.265       .  A
C353        O358   1.269       .  A
C353       C1693   1.482       .  S
O354        C360   1.264       .  A
O354       Cd357   2.435       .  S
C355        O363   1.264       .  A
C355       C1187   1.478       .  S
C356        O361   1.270       .  A
C356        O359   1.266       .  A
C356       C1219   1.484       .  S
Cd357       O364   2.501       .  S
Cd357       O363   2.425       .  S
Cd357       O362   2.448       .  S
Cd357       O358   2.484       .  S
Cd357       O361   2.500       .  S
Cd357       O359   2.428       .  S
C360        O364   1.269       .  A
C360       C1957   1.481       .  S
O365        C368   1.269       .  A
O365       Cd370   2.493       .  S
C366        O375   1.265       .  A
C366        O371   1.268       .  A
C366       C2419   1.479       .  S
O367        C373   1.264       .  A
O367       Cd370   2.413       .  S
C368        O376   1.265       .  A
C368       C1253   1.477       .  S
C369        O374   1.269       .  A
C369        O372   1.264       .  A
C369       C1165   1.481       .  S
Cd370       O377   2.491       .  S
Cd370       O376   2.435       .  S
Cd370       O375   2.447       .  S
Cd370       O371   2.479       .  S
Cd370       O374   2.517       .  S
Cd370       O372   2.408       .  S
C373        O377   1.270       .  A
C373       C1131   1.476       .  S
O378        C381   1.269       .  A
O378       Cd383   2.477       .  S
C379        O388   1.266       .  A
C379        O384   1.269       .  A
C379       C1109   1.475       .  S
O380        C386   1.271       .  A
O380       Cd383   2.494       .  S
C381        O389   1.264       .  A
C381       C1627   1.481       .  S
C382        O387   1.270       .  A
C382        O385   1.262       .  A
C382       C1087   1.474       .  S
Cd383       O390   2.385       .  S
Cd383       O389   2.456       .  S
Cd383       O388   2.455       .  S
Cd383       O384   2.472       .  S
Cd383       O387   2.486   1_556  S
Cd383       O385   2.405   1_556  S
C386        O390   1.266       .  A
C386       C1153   1.477       .  S
O391        C394   1.270       .  A
O391       Cd396   2.486       .  S
C392        O401   1.265       .  A
C392        O397   1.269       .  A
C392       C1021   1.483       .  S
O393        C399   1.262       .  A
O393       Cd396   2.422       .  S
C394        O402   1.266       .  A
C394       C1055   1.478       .  S
C395        O400   1.272       .  A
C395        O398   1.265       .  A
C395       C1077   1.483       .  S
Cd396       O403   2.510       .  S
Cd396       O402   2.432       .  S
Cd396       O401   2.460       .  S
Cd396       O397   2.482       .  S
Cd396       O400   2.514       .  S
Cd396       O398   2.403       .  S
C399        O403   1.270       .  A
C399       C2243   1.480       .  S
O404        C407   1.266       .  A
O404       Cd409   2.427       .  S
C405        O414   1.265       .  A
C405        O410   1.268       .  A
C405       C1351   1.477       .  S
O406        C412   1.263       .  A
O406       Cd409   2.410       .  S
C407        O415   1.269       .  A
C407       C1121   1.477       .  S
C408        O413   1.270       .  A
C408        O411   1.266       .  A
C408       C1065   1.480       .  S
Cd409       O416   2.497       .  S
Cd409       O415   2.475       .  S
Cd409       O414   2.441       .  S
Cd409       O410   2.468       .  S
Cd409       O413   2.489       .  S
Cd409       O411   2.417       .  S
C412        O416   1.270       .  A
C412       C2649   1.474   1_554  S
O417        C420   1.269       .  A
O417       Cd422   2.494       .  S
C418        O427   1.265       .  A
C418        O423   1.270       .  A
C418       C1385   1.479       .  S
O419        C425   1.270       .  A
O419       Cd422   2.507       .  S
C420        O428   1.265       .  A
C420       C1175   1.479       .  S
C421        O426   1.272       .  A
C421        O424   1.267       .  A
C421        C999   1.480       .  S
Cd422       O429   2.408       .  S
Cd422       O428   2.433       .  S
Cd422       O427   2.437       .  S
Cd422       O423   2.480       .  S
Cd422       O426   2.491       .  S
Cd422       O424   2.417       .  S
C425        O429   1.263       .  A
C425        C977   1.479       .  S
O430        C433   1.270       .  A
O430       Cd435   2.471       .  S
C431        O440   1.264       .  A
C431        O436   1.269       .  A
C431       C2089   1.487       .  S
O432        C438   1.265   1_655  A
O432       Cd435   2.454       .  S
C433        O441   1.265       .  A
C433        C955   1.475       .  S
C434        O439   1.270       .  A
C434        O437   1.264       .  A
C434       C1011   1.485       .  S
Cd435       O442   2.486       .  S
Cd435       O441   2.442       .  S
Cd435       O440   2.460       .  S
Cd435       O436   2.511       .  S
Cd435       O439   2.517       .  S
Cd435       O437   2.430       .  S
C438        O442   1.271   1_455  A
C438        C933   1.483       .  S
O443        C446   1.268       .  A
O443       Cd448   2.474       .  S
C444        O453   1.266       .  A
C444        O449   1.267       .  A
C444       C1043   1.473       .  S
O445        C451   1.272       .  A
O445       Cd448   2.517       .  S
C446        O454   1.265       .  A
C446        C889   1.477       .  S
C447        O452   1.270       .  A
C447        O450   1.262       .  A
C447       C1473   1.478       .  S
Cd448       O455   2.402       .  S
Cd448       O454   2.440       .  S
Cd448       O453   2.441       .  S
Cd448       O449   2.475       .  S
Cd448       O452   2.504       .  S
Cd448       O450   2.422       .  S
C451        O455   1.265       .  A
C451        C923   1.483       .  S
O456        C459   1.269       .  A
O456       Cd461   2.489       .  S
C457        O466   1.264       .  A
C457        O462   1.267       .  A
C457       C2353   1.484       .  S
O458        C464   1.270       .  A
O458       Cd461   2.509       .  S
C459        O467   1.266       .  A
C459        C967   1.478       .  S
C460        O465   1.270       .  A
C460        O463   1.264       .  A
C460        C911   1.484       .  S
Cd461       O468   2.433       .  S
Cd461       O467   2.438       .  S
Cd461       O466   2.470       .  S
Cd461       O462   2.489       .  S
Cd461       O465   2.517       .  S
Cd461       O463   2.424       .  S
C464        O468   1.264       .  A
C464       C1737   1.482   1_455  S
O469        C472   1.269       .  A
O469       Cd474   2.491       .  S
C470        O479   1.266       .  A
C470        O475   1.267       .  A
C470       C2671   1.481       .  S
O471        C477   1.262   1_556  A
O471       Cd474   2.415       .  S
C472        O480   1.265       .  A
C472        C845   1.475       .  S
C473        O478   1.271       .  A
C473        O476   1.266       .  A
C473        C867   1.487       .  S
Cd474       O481   2.522   1_556  S
Cd474       O480   2.423       .  S
Cd474       O479   2.459       .  S
Cd474       O475   2.479       .  S
Cd474       O478   2.502       .  S
Cd474       O476   2.442       .  S
C477        O481   1.270       .  A
C477       C1329   1.481       .  S
O482        C485   1.269       .  A
O482       Cd487   2.489       .  S
C483        O492   1.265       .  A
C483        O488   1.269       .  A
C483       C1143   1.477       .  S
O484        C490   1.271       .  A
O484       Cd487   2.489       .  S
C485        O493   1.266       .  A
C485        C835   1.474       .  S
C486        O491   1.271       .  A
C486        O489   1.267       .  A
C486        C879   1.487       .  S
Cd487       O494   2.412       .  S
Cd487       O493   2.418       .  S
Cd487       O492   2.429       .  S
Cd487       O488   2.470       .  S
Cd487       O491   2.508       .  S
Cd487       O489   2.436       .  S
C490        O494   1.262       .  A
C490       C1879   1.475       .  S
O495        C498   1.270       .  A
O495       Cd500   2.490       .  S
C496        O505   1.264       .  A
C496        O501   1.270       .  A
C496       C2023   1.478       .  S
O497        C503   1.270   1_554  A
O497       Cd500   2.511       .  S
C498        O506   1.267       .  A
C498        C857   1.481       .  S
C499        O504   1.271       .  A
C499        O502   1.266       .  A
C499        C801   1.481       .  S
Cd500       O507   2.407       .  S
Cd500       O506   2.434       .  S
Cd500       O505   2.427       .  S
Cd500       O501   2.481       .  S
Cd500       O504   2.481       .  S
Cd500       O502   2.439       .  S
C503        O507   1.264   1_556  A
C503       C1263   1.479       .  S
O508        C511   1.270       .  A
O508       Cd513   2.496       .  S
C509        O518   1.265       .  A
C509        O514   1.269       .  A
C509       C1781   1.484       .  S
O510        C516   1.270       .  A
O510       Cd513   2.526       .  S
C511        O519   1.265       .  A
C511        C779   1.478       .  S
C512        O517   1.272       .  A
C512        O515   1.266       .  A
C512        C813   1.485       .  S
Cd513       O520   2.435       .  S
Cd513       O519   2.438       .  S
Cd513       O518   2.451       .  S
Cd513       O514   2.498       .  S
Cd513       O517   2.503       .  S
Cd513       O515   2.426       .  S
C516        O520   1.263       .  A
C516       C1033   1.487       .  S
O521        C524   1.266       .  A
O521       Cd526   2.433       .  S
C522        O531   1.266       .  A
C522        O527   1.271       .  A
C522       C1561   1.482       .  S
O523        C529   1.264       .  A
O523       Cd526   2.403       .  S
C524        O532   1.271       .  A
C524        C791   1.479       .  S
C525        O530   1.272       .  A
C525        O528   1.266       .  A
C525        C757   1.480       .  S
Cd526       O533   2.491       .  S
Cd526       O532   2.481       .  S
Cd526       O531   2.445       .  S
Cd526       O527   2.485       .  S
Cd526       O530   2.503       .  S
Cd526       O528   2.390       .  S
C529        O533   1.272       .  A
C529       C2133   1.476       .  S
O534        C537   1.268       .  A
O534       Cd539   2.492       .  S
C535        O544   1.264       .  A
C535        O540   1.268       .  A
C535       C1099   1.477       .  S
O536        C542   1.267       .  A
O536       Cd539   2.470   1_545  S
C537        O545   1.264       .  A
C537        C735   1.477       .  S
C538        O543   1.270       .  A
C538        O541   1.267       .  A
C538        C769   1.478       .  S
Cd539       O546   2.448       .  S
Cd539       O545   2.434       .  S
Cd539       O544   2.442       .  S
Cd539       O540   2.483       .  S
Cd539       O543   2.485       .  S
Cd539       O541   2.411       .  S
C542        O546   1.263   1_545  A
C542       C2199   1.477       .  S
O547        C550   1.268       .  A
O547       Cd552   2.464       .  S
C548        O557   1.265       .  A
C548        O553   1.269       .  A
C548        C691   1.471       .  S
O549        C555   1.271       .  A
O549       Cd552   2.493       .  S
C550        O558   1.265       .  A
C550       C1979   1.474       .  S
C551        O556   1.269       .  A
C551        O554   1.263       .  A
C551       C1671   1.475       .  S
Cd552       O559   2.416       .  S
Cd552       O558   2.432       .  S
Cd552       O557   2.401       .  S
Cd552       O553   2.493       .  S
Cd552       O556   2.492       .  S
Cd552       O554   2.418       .  S
C555        O559   1.267       .  A
C555        C725   1.481       .  S
O560        C563   1.269       .  A
O560       Cd565   2.493       .  S
C561        O570   1.266       .  A
C561        O566   1.270       .  A
C561        C747   1.477       .  S
O562        C568   1.271       .  A
O562       Cd565   2.515       .  S
C563        O571   1.267       .  A
C563        C945   1.485       .  S
C564        O569   1.272       .  A
C564        O567   1.263   1_565  A
C564       C1417   1.480       .  S
Cd565       O572   2.420       .  S
Cd565       O571   2.453       .  S
Cd565       O570   2.432       .  S
Cd565       O566   2.475       .  S
Cd565       O569   2.508   1_545  S
Cd565       O567   2.403       .  S
C568        O572   1.266       .  A
C568        C713   1.485       .  S
O573        C576   1.268       .  A
O573       Cd578   2.475       .  S
C574        O583   1.265       .  A
C574        O579   1.269       .  A
C574        C823   1.478       .  S
O575        C581   1.269       .  A
O575       Cd578   2.484       .  S
C576        O584   1.264       .  A
C576        C989   1.478       .  S
C577        O582   1.268       .  A
C577        O580   1.263       .  A
C577       C2463   1.477       .  S
Cd578       O585   2.429       .  S
Cd578       O584   2.448       .  S
Cd578       O583   2.406       .  S
Cd578       O579   2.512       .  S
Cd578       O582   2.494       .  S
Cd578       O580   2.423       .  S
C581        O585   1.267       .  A
C581        C669   1.480       .  S
O586        C589   1.269       .  A
O586       Cd591   2.480       .  S
C587        O596   1.264       .  A
C587        O592   1.266       .  A
C587       C1759   1.479       .  S
O588        C594   1.264       .  A
O588       Cd591   2.417   1_455  S
C589        O597   1.266       .  A
C589        C647   1.475       .  S
C590        O595   1.269       .  A
C590        O593   1.263       .  A
C590        C681   1.479       .  S
Cd591       O598   2.487   1_655  S
Cd591       O597   2.421       .  S
Cd591       O596   2.458       .  S
Cd591       O592   2.473       .  S
Cd591       O595   2.512       .  S
Cd591       O593   2.404       .  S
C594        O598   1.270       .  A
C594       C2331   1.474       .  S
O599        C602   1.266       .  A
O599       Cd604   2.487       .  S
C600        O609   1.265       .  A
C600        O605   1.268       .  A
C600        C659   1.475       .  S
O601        C607   1.269       .  A
O601       Cd604   2.505       .  S
C602        O610   1.265       .  A
C602       C1517   1.483       .  S
C603        O608   1.270   1_655  A
C603        O606   1.264   1_655  A
C603       C1197   1.475       .  S
Cd604       O611   2.435       .  S
Cd604       O610   2.466       .  S
Cd604       O609   2.448       .  S
Cd604       O605   2.475       .  S
Cd604       O608   2.504       .  S
Cd604       O606   2.405       .  S
C607        O611   1.264       .  A
C607        C625   1.483       .  S
O612        C615   1.267       .  A
O612       Cd617   2.472       .  S
C613        O622   1.265       .  A
C613        O618   1.267       .  A
C613       C2605   1.472       .  S
O614        C620   1.262       .  A
O614       Cd617   2.430       .  S
C615        O623   1.266       .  A
C615        C703   1.474       .  S
C616        O621   1.271       .  A
C616        O619   1.266       .  A
C616        C637   1.485       .  S
Cd617       O624   2.509       .  S
Cd617       O623   2.427       .  S
Cd617       O622   2.429       .  S
Cd617       O618   2.470       .  S
Cd617       O621   2.498       .  S
Cd617       O619   2.439       .  S
C620        O624   1.269       .  A
C620        C901   1.481       .  S
C625        C626   1.401       .  A
C625        C630   1.402       .  A
C626        C627   1.402       .  A
C626        H639   1.083       .  S
C627        C628   1.417       .  A
C627        H640   1.078       .  S
C628        C634   1.434       .  A
C628        C629   1.422       .  A
C629        C631   1.399       .  A
C629        C630   1.403       .  A
C630        H641   1.085       .  S
C631        C632   1.388       .  A
C631        H642   1.084       .  S
C632        C633   1.399       .  A
C632        H643   1.084       .  S
C633        C634   1.423       .  A
C633        C638   1.404       .  A
C634        C635   1.417       .  A
C635        C636   1.402       .  A
C635        H644   1.078       .  S
C636        C637   1.401       .  A
C636        H645   1.083       .  S
C637        C638   1.402       .  A
C638        H646   1.085       .  S
C647        C648   1.399       .  A
C647        C652   1.399   1_655  A
C648        C649   1.400       .  A
C648        H661   1.083       .  S
C649        C650   1.417       .  A
C649        H662   1.078       .  S
C650        C656   1.430   1_655  A
C650        C651   1.422   1_655  A
C651        C653   1.398       .  A
C651        C652   1.400       .  A
C652        H663   1.085       .  S
C653        C654   1.387       .  A
C653        H664   1.084       .  S
C654        C655   1.398       .  A
C654        H665   1.084       .  S
C655        C656   1.424       .  A
C655        C660   1.404       .  A
C656        C657   1.415   1_455  A
C657        C658   1.397       .  A
C657        H666   1.078       .  S
C658        C659   1.400   1_655  A
C658        H667   1.083       .  S
C659        C660   1.398       .  A
C660        H668   1.085       .  S
C669        C670   1.401       .  A
C669        C674   1.400       .  A
C670        C671   1.401       .  A
C670        H683   1.083       .  S
C671        C672   1.416       .  A
C671        H684   1.078       .  S
C672        C678   1.432       .  A
C672        C673   1.423       .  A
C673        C675   1.397       .  A
C673        C674   1.400       .  A
C674        H685   1.085       .  S
C675        C676   1.385       .  A
C675        H686   1.084       .  S
C676        C677   1.398       .  A
C676        H687   1.084       .  S
C677        C678   1.421       .  A
C677        C682   1.398       .  A
C678        C679   1.418       .  A
C679        C680   1.403       .  A
C679        H688   1.078       .  S
C680        C681   1.401       .  A
C680        H689   1.083       .  S
C681        C682   1.400       .  A
C682        H690   1.085       .  S
C691        C692   1.399       .  A
C691        C696   1.397       .  A
C692        C693   1.401       .  A
C692        H705   1.083       .  S
C693        C694   1.417       .  A
C693        H706   1.078       .  S
C694        C700   1.429       .  A
C694        C695   1.422       .  A
C695        C697   1.397       .  A
C695        C696   1.397       .  A
C696        H707   1.085       .  S
C697        C698   1.385       .  A
C697        H708   1.084       .  S
C698        C699   1.397       .  A
C698        H709   1.084       .  S
C699        C700   1.423       .  A
C699        C704   1.399       .  A
C700        C701   1.416       .  A
C701        C702   1.399       .  A
C701        H710   1.078       .  S
C702        C703   1.401       .  A
C702        H711   1.083       .  S
C703        C704   1.398       .  A
C704        H712   1.085       .  S
C713        C714   1.401       .  A
C713        C718   1.405       .  A
C714        C715   1.391       .  A
C714        H727   1.083       .  S
C715        C716   1.412       .  A
C715        H728   1.076       .  S
C716        C722   1.429       .  A
C716        C717   1.423       .  A
C717        C719   1.402       .  A
C717        C718   1.413       .  A
C718        H729   1.084       .  S
C719        C720   1.395       .  A
C719        H730   1.084       .  S
C720        C721   1.401       .  A
C720        H731   1.084       .  S
C721        C722   1.422       .  A
C721        C726   1.411       .  A
C722        C723   1.413       .  A
C723        C724   1.391       .  A
C723        H732   1.076       .  S
C724        C725   1.400       .  A
C724        H733   1.083       .  S
C725        C726   1.404       .  A
C726        H734   1.084       .  S
C735        C736   1.400       .  A
C735        C740   1.401       .  A
C736        C737   1.399       .  A
C736        H749   1.083       .  S
C737        C738   1.416       .  A
C737        H750   1.078       .  S
C738        C744   1.430       .  A
C738        C739   1.422       .  A
C739        C741   1.399       .  A
C739        C740   1.402       .  A
C740        H751   1.085       .  S
C741        C742   1.388       .  A
C741        H752   1.084       .  S
C742        C743   1.399       .  A
C742        H753   1.084       .  S
C743        C744   1.423       .  A
C743        C748   1.402   1_565  A
C744        C745   1.416   1_565  A
C745        C746   1.399       .  A
C745        H754   1.078       .  S
C746        C747   1.399       .  A
C746        H755   1.083       .  S
C747        C748   1.400       .  A
C748        H756   1.085       .  S
C757        C758   1.401       .  A
C757        C762   1.399       .  A
C758        C759   1.404       .  A
C758        H771   1.083       .  S
C759        C760   1.418       .  A
C759        H772   1.078       .  S
C760        C766   1.432       .  A
C760        C761   1.422       .  A
C761        C763   1.397       .  A
C761        C762   1.397       .  A
C762        H773   1.085       .  S
C763        C764   1.383       .  A
C763        H774   1.084       .  S
C764        C765   1.397       .  A
C764        H775   1.084       .  S
C765        C766   1.423       .  A
C765        C770   1.398       .  A
C766        C767   1.417       .  A
C767        C768   1.403       .  A
C767        H776   1.078       .  S
C768        C769   1.402       .  A
C768        H777   1.083       .  S
C769        C770   1.398       .  A
C770        H778   1.085       .  S
C779        C780   1.400       .  A
C779        C784   1.401       .  A
C780        C781   1.395       .  A
C780        H793   1.084       .  S
C781        C782   1.414       .  A
C781        H794   1.077       .  S
C782        C788   1.430       .  A
C782        C783   1.423       .  A
C783        C785   1.400       .  A
C783        C784   1.408       .  A
C784        H795   1.084       .  S
C785        C786   1.391       .  A
C785        H796   1.084       .  S
C786        C787   1.400       .  A
C786        H797   1.084       .  S
C787        C788   1.423       .  A
C787        C792   1.408       .  A
C788        C789   1.414       .  A
C789        C790   1.396       .  A
C789        H798   1.077       .  S
C790        C791   1.400       .  A
C790        H799   1.083       .  S
C791        C792   1.401       .  A
C792        H800   1.084       .  S
C801        C802   1.401       .  A
C801        C806   1.401       .  A
C802        C803   1.396       .  A
C802        H815   1.083       .  S
C803        C804   1.415       .  A
C803        H816   1.077       .  S
C804        C810   1.431       .  A
C804        C805   1.422       .  A
C805        C807   1.400       .  A
C805        C806   1.408       .  A
C806        H817   1.084       .  S
C807        C808   1.392       .  A
C807        H818   1.084       .  S
C808        C809   1.400       .  A
C808        H819   1.084       .  S
C809        C810   1.423       .  A
C809        C814   1.410       .  A
C810        C811   1.413       .  A
C811        C812   1.395       .  A
C811        H820   1.077       .  S
C812        C813   1.402       .  A
C812        H821   1.083       .  S
C813        C814   1.402       .  A
C814        H822   1.084       .  S
C823        C824   1.398       .  A
C823        C828   1.405       .  A
C824        C825   1.387       .  A
C824        H837   1.084       .  S
C825        C826   1.412       .  A
C825        H838   1.077       .  S
C826        C832   1.427       .  A
C826        C827   1.423       .  A
C827        C829   1.402       .  A
C827        C828   1.413       .  A
C828        H839   1.084       .  S
C829        C830   1.396       .  A
C829        H840   1.084       .  S
C830        C831   1.402       .  A
C830        H841   1.084       .  S
C831        C832   1.422       .  A
C831        C836   1.411       .  A
C832        C833   1.414       .  A
C833        C834   1.389       .  A
C833        H842   1.077       .  S
C834        C835   1.396       .  A
C834        H843   1.084       .  S
C835        C836   1.404       .  A
C836        H844   1.084       .  S
C845        C846   1.400       .  A
C845        C850   1.398       .  A
C846        C847   1.402       .  A
C846        H859   1.083       .  S
C847        C848   1.417       .  A
C847        H860   1.077       .  S
C848        C854   1.432       .  A
C848        C849   1.423       .  A
C849        C851   1.397       .  A
C849        C850   1.400       .  A
C850        H861   1.085       .  S
C851        C852   1.386       .  A
C851        H862   1.085       .  S
C852        C853   1.398       .  A
C852        H863   1.083       .  S
C853        C854   1.422       .  A
C853        C858   1.401   1_556  A
C854        C855   1.417   1_556  A
C855        C856   1.402       .  A
C855        H864   1.076       .  S
C856        C857   1.401       .  A
C856        H865   1.084       .  S
C857        C858   1.400       .  A
C858        H866   1.084       .  S
C867        C868   1.402       .  A
C867        C872   1.402       .  A
C868        C869   1.403       .  A
C868        H881   1.083       .  S
C869        C870   1.417       .  A
C869        H882   1.077       .  S
C870        C876   1.435       .  A
C870        C871   1.423       .  A
C871        C873   1.399       .  A
C871        C872   1.404       .  A
C872        H883   1.084       .  S
C873        C874   1.388       .  A
C873        H884   1.084       .  S
C874        C875   1.399       .  A
C874        H885   1.084       .  S
C875        C876   1.422       .  A
C875        C880   1.404       .  A
C876        C877   1.418       .  A
C877        C878   1.404       .  A
C877        H886   1.077       .  S
C878        C879   1.402       .  A
C878        H887   1.083       .  S
C879        C880   1.402       .  A
C880        H888   1.084       .  S
C889        C890   1.400       .  A
C889        C894   1.400       .  A
C890        C891   1.396       .  A
C890        H903   1.083       .  S
C891        C892   1.414       .  A
C891        H904   1.077       .  S
C892        C898   1.431       .  A
C892        C893   1.424       .  A
C893        C895   1.398       .  A
C893        C894   1.405       .  A
C894        H905   1.084       .  S
C895        C896   1.389       .  A
C895        H906   1.084       .  S
C896        C897   1.400       .  A
C896        H907   1.084       .  S
C897        C898   1.421       .  A
C897        C902   1.403       .  A
C898        C899   1.417       .  A
C899        C900   1.400       .  A
C899        H908   1.077       .  S
C900        C901   1.399       .  A
C900        H909   1.083       .  S
C901        C902   1.403       .  A
C902        H910   1.084       .  S
C911        C912   1.401       .  A
C911        C916   1.405       .  A
C912        C913   1.391       .  A
C912        H925   1.083       .  S
C913        C914   1.413       .  A
C913        H926   1.077       .  S
C914        C920   1.429       .  A
C914        C915   1.422       .  A
C915        C917   1.402       .  A
C915        C916   1.412       .  A
C916        H927   1.084       .  S
C917        C918   1.395       .  A
C917        H928   1.084       .  S
C918        C919   1.401       .  A
C918        H929   1.084       .  S
C919        C920   1.423       .  A
C919        C924   1.413       .  A
C920        C921   1.412       .  A
C921        C922   1.390       .  A
C921        H930   1.077       .  S
C922        C923   1.400       .  A
C922        H931   1.083       .  S
C923        C924   1.405       .  A
C924        H932   1.084       .  S
C933        C934   1.398       .  A
C933        C938   1.405       .  A
C934        C935   1.397       .  A
C934        H947   1.083       .  S
C935        C936   1.416       .  A
C935        H948   1.077       .  S
C936        C942   1.432       .  A
C936        C937   1.422       .  A
C937        C939   1.401       .  A
C937        C938   1.408       .  A
C938        H949   1.084       .  S
C939        C940   1.392       .  A
C939        H950   1.084       .  S
C940        C941   1.400       .  A
C940        H951   1.084       .  S
C941        C942   1.423       .  A
C941        C946   1.410       .  A
C942        C943   1.414       .  A
C943        C944   1.396       .  A
C943        H952   1.077       .  S
C944        C945   1.401       .  A
C944        H953   1.083       .  S
C945        C946   1.404       .  A
C946        H954   1.084       .  S
C955        C956   1.401   1_655  A
C955        C960   1.398       .  A
C956        C957   1.398       .  A
C956        H969   1.083       .  S
C957        C958   1.415       .  A
C957        H970   1.078       .  S
C958        C964   1.430       .  A
C958        C959   1.424   1_455  A
C959        C961   1.398       .  A
C959        C960   1.404       .  A
C960        H971   1.085       .  S
C961        C962   1.389       .  A
C961        H972   1.084       .  S
C962        C963   1.399       .  A
C962        H973   1.084       .  S
C963        C964   1.421   1_655  A
C963        C968   1.403   1_655  A
C964        C965   1.417       .  A
C965        C966   1.400       .  A
C965        H974   1.078       .  S
C966        C967   1.400       .  A
C966        H975   1.083       .  S
C967        C968   1.401       .  A
C968        H976   1.085   1_455  S
C977        C978   1.400       .  A
C977        C982   1.402       .  A
C978        C979   1.401       .  A
C978        H991   1.083       .  S
C979        C980   1.418       .  A
C979        H992   1.078       .  S
C980        C986   1.430       .  A
C980        C981   1.421       .  A
C981        C983   1.399       .  A
C981        C982   1.400       .  A
C982        H993   1.085       .  S
C983        C984   1.387       .  A
C983        H994   1.084       .  S
C984        C985   1.398       .  A
C984        H995   1.084       .  S
C985        C986   1.424       .  A
C985        C990   1.403       .  A
C986        C987   1.414       .  A
C987        C988   1.397       .  A
C987        H996   1.078       .  S
C988        C989   1.402       .  A
C988        H997   1.083       .  S
C989        C990   1.399       .  A
C990        H998   1.085       .  S
C999       C1000   1.401       .  A
C999       C1004   1.400       .  A
C1000      C1001   1.403       .  A
C1000      H1013   1.083       .  S
C1001      C1002   1.417       .  A
C1001      H1014   1.078       .  S
C1002      C1008   1.434       .  A
C1002      C1003   1.423       .  A
C1003      C1005   1.398       .  A
C1003      C1004   1.401       .  A
C1004      H1015   1.085       .  S
C1005      C1006   1.386       .  A
C1005      H1016   1.084       .  S
C1006      C1007   1.398       .  A
C1006      H1017   1.084       .  S
C1007      C1008   1.422       .  A
C1007      C1012   1.402       .  A
C1008      C1009   1.417       .  A
C1009      C1010   1.404       .  A
C1009      H1018   1.078       .  S
C1010      C1011   1.402       .  A
C1010      H1019   1.083       .  S
C1011      C1012   1.402       .  A
C1012      H1020   1.085       .  S
C1021      C1022   1.402       .  A
C1021      C1026   1.400       .  A
C1022      C1023   1.400       .  A
C1022      H1035   1.083       .  S
C1023      C1024   1.415       .  A
C1023      H1036   1.078       .  S
C1024      C1030   1.434       .  A
C1024      C1025   1.424       .  A
C1025      C1027   1.398       .  A
C1025      C1026   1.406       .  A
C1026      H1037   1.085       .  S
C1027      C1028   1.388       .  A
C1027      H1038   1.084       .  S
C1028      C1029   1.399       .  A
C1028      H1039   1.084       .  S
C1029      C1030   1.421       .  A
C1029      C1034   1.403       .  A
C1030      C1031   1.418       .  A
C1031      C1032   1.403       .  A
C1031      H1040   1.078       .  S
C1032      C1033   1.401       .  A
C1032      H1041   1.083       .  S
C1033      C1034   1.403       .  A
C1034      H1042   1.084       .  S
C1043      C1044   1.400       .  A
C1043      C1048   1.397       .  A
C1044      C1045   1.400       .  A
C1044      H1057   1.083       .  S
C1045      C1046   1.416       .  A
C1045      H1058   1.078       .  S
C1046      C1052   1.431       .  A
C1046      C1047   1.423       .  A
C1047      C1049   1.398       .  A
C1047      C1048   1.401       .  A
C1048      H1059   1.085       .  S
C1049      C1050   1.387       .  A
C1049      H1060   1.084       .  S
C1050      C1051   1.398       .  A
C1050      H1061   1.084       .  S
C1051      C1052   1.422       .  A
C1051      C1056   1.401       .  A
C1052      C1053   1.416       .  A
C1053      C1054   1.401       .  A
C1053      H1062   1.078       .  S
C1054      C1055   1.401       .  A
C1054      H1063   1.083       .  S
C1055      C1056   1.400       .  A
C1056      H1064   1.085       .  S
C1065      C1066   1.401       .  A
C1065      C1070   1.400       .  A
C1066      C1067   1.402       .  A
C1066      H1079   1.083       .  S
C1067      C1068   1.417       .  A
C1067      H1080   1.078       .  S
C1068      C1074   1.433       .  A
C1068      C1069   1.423       .  A
C1069      C1071   1.397       .  A
C1069      C1070   1.400       .  A
C1070      H1081   1.085       .  S
C1071      C1072   1.384       .  A
C1071      H1082   1.084       .  S
C1072      C1073   1.398       .  A
C1072      H1083   1.084       .  S
C1073      C1074   1.422       .  A
C1073      C1078   1.399       .  A
C1074      C1075   1.418       .  A
C1075      C1076   1.405       .  A
C1075      H1084   1.078       .  S
C1076      C1077   1.402       .  A
C1076      H1085   1.083       .  S
C1077      C1078   1.400       .  A
C1078      H1086   1.085       .  S
C1087      C1088   1.398       .  A
C1087      C1092   1.401       .  A
C1088      C1089   1.398       .  A
C1088      H1101   1.083       .  S
C1089      C1090   1.417       .  A
C1089      H1102   1.078       .  S
C1090      C1096   1.429       .  A
C1090      C1091   1.421       .  A
C1091      C1093   1.399       .  A
C1091      C1092   1.400       .  A
C1092      H1103   1.085       .  S
C1093      C1094   1.388       .  A
C1093      H1104   1.084       .  S
C1094      C1095   1.398       .  A
C1094      H1105   1.084       .  S
C1095      C1096   1.424       .  A
C1095      C1100   1.404       .  A
C1096      C1097   1.413       .  A
C1097      C1098   1.395       .  A
C1097      H1106   1.078       .  S
C1098      C1099   1.401       .  A
C1098      H1107   1.083       .  S
C1099      C1100   1.399       .  A
C1100      H1108   1.085       .  S
C1109      C1110   1.398       .  A
C1109      C1114   1.400       .  A
C1110      C1111   1.397   1_556  A
C1110      H1123   1.083       .  S
C1111      C1112   1.415       .  A
C1111      H1124   1.078       .  S
C1112      C1118   1.429       .  A
C1112      C1113   1.423   1_554  A
C1113      C1115   1.399       .  A
C1113      C1114   1.405       .  A
C1114      H1125   1.085       .  S
C1115      C1116   1.390   1_556  A
C1115      H1126   1.084       .  S
C1116      C1117   1.400       .  A
C1116      H1127   1.084   1_554  S
C1117      C1118   1.421       .  A
C1117      C1122   1.402       .  A
C1118      C1119   1.416       .  A
C1119      C1120   1.398       .  A
C1119      H1128   1.078       .  S
C1120      C1121   1.399       .  A
C1120      H1129   1.083       .  S
C1121      C1122   1.401       .  A
C1122      H1130   1.085       .  S
C1131      C1132   1.400       .  A
C1131      C1136   1.400       .  A
C1132      C1133   1.393       .  A
C1132      H1145   1.083       .  S
C1133      C1134   1.412       .  A
C1133      H1146   1.077       .  S
C1134      C1140   1.428       .  A
C1134      C1135   1.424       .  A
C1135      C1137   1.399       .  A
C1135      C1136   1.407       .  A
C1136      H1147   1.084       .  S
C1137      C1138   1.390       .  A
C1137      H1148   1.084       .  S
C1138      C1139   1.400       .  A
C1138      H1149   1.084       .  S
C1139      C1140   1.421       .  A
C1139      C1144   1.403       .  A
C1140      C1141   1.416       .  A
C1141      C1142   1.396       .  A
C1141      H1150   1.077       .  S
C1142      C1143   1.399       .  A
C1142      H1151   1.083       .  S
C1143      C1144   1.402       .  A
C1144      H1152   1.085       .  S
C1153      C1154   1.401       .  A
C1153      C1158   1.398       .  A
C1154      C1155   1.404       .  A
C1154      H1167   1.083       .  S
C1155      C1156   1.418       .  A
C1155      H1168   1.078       .  S
C1156      C1162   1.433       .  A
C1156      C1157   1.422       .  A
C1157      C1159   1.396       .  A
C1157      C1158   1.395       .  A
C1158      H1169   1.085       .  S
C1159      C1160   1.382       .  A
C1159      H1170   1.084       .  S
C1160      C1161   1.397       .  A
C1160      H1171   1.084       .  S
C1161      C1162   1.422       .  A
C1161      C1166   1.396       .  A
C1162      C1163   1.418       .  A
C1163      C1164   1.405       .  A
C1163      H1172   1.078       .  S
C1164      C1165   1.402       .  A
C1164      H1173   1.083       .  S
C1165      C1166   1.399       .  A
C1166      H1174   1.085       .  S
C1175      C1176   1.399       .  A
C1175      C1180   1.403       .  A
C1176      C1177   1.393       .  A
C1176      H1189   1.084       .  S
C1177      C1178   1.414       .  A
C1177      H1190   1.076       .  S
C1178      C1184   1.429       .  A
C1178      C1179   1.422       .  A
C1179      C1181   1.401       .  A
C1179      C1180   1.410       .  A
C1180      H1191   1.084       .  S
C1181      C1182   1.394       .  A
C1181      H1192   1.084       .  S
C1182      C1183   1.401       .  A
C1182      H1193   1.084       .  S
C1183      C1184   1.423       .  A
C1183      C1188   1.411       .  A
C1184      C1185   1.413       .  A
C1185      C1186   1.392       .  A
C1185      H1194   1.076       .  S
C1186      C1187   1.398       .  A
C1186      H1195   1.084       .  S
C1187      C1188   1.403       .  A
C1188      H1196   1.084       .  S
C1197      C1198   1.399       .  A
C1197      C1202   1.400       .  A
C1198      C1199   1.401       .  A
C1198      H1211   1.083       .  S
C1199      C1200   1.419       .  A
C1199      H1212   1.077       .  S
C1200      C1206   1.430       .  A
C1200      C1201   1.421       .  A
C1201      C1203   1.399       .  A
C1201      C1202   1.399       .  A
C1202      H1213   1.085       .  S
C1203      C1204   1.387       .  A
C1203      H1214   1.084       .  S
C1204      C1205   1.398       .  A
C1204      H1215   1.084       .  S
C1205      C1206   1.424       .  A
C1205      C1210   1.403       .  A
C1206      C1207   1.413       .  A
C1207      C1208   1.396       .  A
C1207      H1216   1.077       .  S
C1208      C1209   1.401       .  A
C1208      H1217   1.083       .  S
C1209      C1210   1.398       .  A
C1210      H1218   1.085       .  S
C1219      C1220   1.402       .  A
C1219      C1224   1.400       .  A
C1220      C1221   1.404       .  A
C1220      H1233   1.083       .  S
C1221      C1222   1.417       .  A
C1221      H1234   1.078       .  S
C1222      C1228   1.435       .  A
C1222      C1223   1.423       .  A
C1223      C1225   1.398       .  A
C1223      C1224   1.401       .  A
C1224      H1235   1.085       .  S
C1225      C1226   1.385       .  A
C1225      H1236   1.084       .  S
C1226      C1227   1.398       .  A
C1226      H1237   1.084       .  S
C1227      C1228   1.422       .  A
C1227      C1232   1.400       .  A
C1228      C1229   1.419       .  A
C1229      C1230   1.405       .  A
C1229      H1238   1.078       .  S
C1230      C1231   1.402       .  A
C1230      H1239   1.083       .  S
C1231      C1232   1.401       .  A
C1232      H1240   1.085       .  S
C1241      C1242   1.399       .  A
C1241      C1246   1.403       .  A
C1242      C1243   1.399       .  A
C1242      H1255   1.083       .  S
C1243      C1244   1.417       .  A
C1243      H1256   1.078       .  S
C1244      C1250   1.430       .  A
C1244      C1245   1.420       .  A
C1245      C1247   1.401       .  A
C1245      C1246   1.406       .  A
C1246      H1257   1.085       .  S
C1247      C1248   1.392       .  A
C1247      H1258   1.084       .  S
C1248      C1249   1.400       .  A
C1248      H1259   1.084       .  S
C1249      C1250   1.424       .  A
C1249      C1254   1.409       .  A
C1250      C1251   1.413       .  A
C1251      C1252   1.395       .  A
C1251      H1260   1.078       .  S
C1252      C1253   1.400       .  A
C1252      H1261   1.084       .  S
C1253      C1254   1.401       .  A
C1254      H1262   1.084       .  S
C1263      C1264   1.400       .  A
C1263      C1268   1.400       .  A
C1264      C1265   1.403       .  A
C1264      H1277   1.083       .  S
C1265      C1266   1.419       .  A
C1265      H1278   1.077       .  S
C1266      C1272   1.432       .  A
C1266      C1267   1.421       .  A
C1267      C1269   1.399       .  A
C1267      C1268   1.400       .  A
C1268      H1279   1.085       .  S
C1269      C1270   1.387       .  A
C1269      H1280   1.084       .  S
C1270      C1271   1.398       .  A
C1270      H1281   1.084       .  S
C1271      C1272   1.424       .  A
C1271      C1276   1.404       .  A
C1272      C1273   1.414       .  A
C1273      C1274   1.398       .  A
C1273      H1282   1.077       .  S
C1274      C1275   1.402       .  A
C1274      H1283   1.083       .  S
C1275      C1276   1.400       .  A
C1276      H1284   1.084       .  S
C1285      C1286   1.399       .  A
C1285      C1290   1.401   1_565  A
C1286      C1287   1.398       .  A
C1286      H1299   1.083       .  S
C1287      C1288   1.417       .  A
C1287      H1300   1.077       .  S
C1288      C1294   1.431       .  A
C1288      C1289   1.422   1_565  A
C1289      C1291   1.400       .  A
C1289      C1290   1.405       .  A
C1290      H1301   1.085       .  S
C1291      C1292   1.390       .  A
C1291      H1302   1.084       .  S
C1292      C1293   1.399       .  A
C1292      H1303   1.084       .  S
C1293      C1294   1.424   1_545  A
C1293      C1298   1.407       .  A
C1294      C1295   1.414       .  A
C1295      C1296   1.395       .  A
C1295      H1304   1.077       .  S
C1296      C1297   1.400   1_565  A
C1296      H1305   1.083       .  S
C1297      C1298   1.401       .  A
C1298      H1306   1.085       .  S
C1307      C1308   1.402       .  A
C1307      C1312   1.402       .  A
C1308      C1309   1.405       .  A
C1308      H1321   1.083       .  S
C1309      C1310   1.419       .  A
C1309      H1322   1.078       .  S
C1310      C1316   1.435       .  A
C1310      C1311   1.422       .  A
C1311      C1313   1.398       .  A
C1311      C1312   1.401       .  A
C1312      H1323   1.085       .  S
C1313      C1314   1.386       .  A
C1313      H1324   1.084       .  S
C1314      C1315   1.398       .  A
C1314      H1325   1.084       .  S
C1315      C1316   1.423       .  A
C1315      C1320   1.403       .  A
C1316      C1317   1.417       .  A
C1317      C1318   1.404       .  A
C1317      H1326   1.078       .  S
C1318      C1319   1.402       .  A
C1318      H1327   1.083       .  S
C1319      C1320   1.401       .  A
C1320      H1328   1.085       .  S
C1329      C1330   1.401       .  A
C1329      C1334   1.402       .  A
C1330      C1331   1.392       .  A
C1330      H1343   1.083       .  S
C1331      C1332   1.412       .  A
C1331      H1344   1.077       .  S
C1332      C1338   1.429       .  A
C1332      C1333   1.424       .  A
C1333      C1335   1.400       .  A
C1333      C1334   1.410       .  A
C1334      H1345   1.084       .  S
C1335      C1336   1.392       .  A
C1335      H1346   1.084       .  S
C1336      C1337   1.401       .  A
C1336      H1347   1.084       .  S
C1337      C1338   1.421       .  A
C1337      C1342   1.406       .  A
C1338      C1339   1.416       .  A
C1339      C1340   1.395       .  A
C1339      H1348   1.077       .  S
C1340      C1341   1.398       .  A
C1340      H1349   1.083       .  S
C1341      C1342   1.404       .  A
C1342      H1350   1.084       .  S
C1351      C1352   1.399       .  A
C1351      C1356   1.402       .  A
C1352      C1353   1.395       .  A
C1352      H1365   1.083       .  S
C1353      C1354   1.416       .  A
C1353      H1366   1.077       .  S
C1354      C1360   1.428       .  A
C1354      C1355   1.421       .  A
C1355      C1357   1.400       .  A
C1355      C1356   1.404       .  A
C1356      H1367   1.084       .  S
C1357      C1358   1.391       .  A
C1357      H1368   1.084       .  S
C1358      C1359   1.399       .  A
C1358      H1369   1.084       .  S
C1359      C1360   1.424       .  A
C1359      C1364   1.407       .  A
C1360      C1361   1.412       .  A
C1361      C1362   1.392       .  A
C1361      H1370   1.077       .  S
C1362      C1363   1.401       .  A
C1362      H1371   1.083       .  S
C1363      C1364   1.401       .  A
C1364      H1372   1.084       .  S
C1373      C1374   1.400       .  A
C1373      C1378   1.401       .  A
C1374      C1375   1.401       .  A
C1374      H1387   1.083       .  S
C1375      C1376   1.418       .  A
C1375      H1388   1.078       .  S
C1376      C1382   1.431       .  A
C1376      C1377   1.421       .  A
C1377      C1379   1.399       .  A
C1377      C1378   1.401       .  A
C1378      H1389   1.085       .  S
C1379      C1380   1.388       .  A
C1379      H1390   1.084       .  S
C1380      C1381   1.398       .  A
C1380      H1391   1.084       .  S
C1381      C1382   1.424       .  A
C1381      C1386   1.405       .  A
C1382      C1383   1.414       .  A
C1383      C1384   1.397       .  A
C1383      H1392   1.078       .  S
C1384      C1385   1.402       .  A
C1384      H1393   1.083       .  S
C1385      C1386   1.399       .  A
C1386      H1394   1.085       .  S
C1395      C1396   1.401       .  A
C1395      C1400   1.400       .  A
C1396      C1397   1.402       .  A
C1396      H1409   1.083       .  S
C1397      C1398   1.417       .  A
C1397      H1410   1.078       .  S
C1398      C1404   1.433       .  A
C1398      C1399   1.422       .  A
C1399      C1401   1.398       .  A
C1399      C1400   1.401       .  A
C1400      H1411   1.085       .  S
C1401      C1402   1.386       .  A
C1401      H1412   1.084       .  S
C1402      C1403   1.398       .  A
C1402      H1413   1.084       .  S
C1403      C1404   1.423       .  A
C1403      C1408   1.401       .  A
C1404      C1405   1.417       .  A
C1405      C1406   1.402       .  A
C1405      H1414   1.078       .  S
C1406      C1407   1.401       .  A
C1406      H1415   1.083       .  S
C1407      C1408   1.400       .  A
C1408      H1416   1.085       .  S
C1417      C1418   1.400       .  A
C1417      C1422   1.402       .  A
C1418      C1419   1.402       .  A
C1418      H1431   1.083       .  S
C1419      C1420   1.418       .  A
C1419      H1432   1.078       .  S
C1420      C1426   1.432       .  A
C1420      C1421   1.421       .  A
C1421      C1423   1.399       .  A
C1421      C1422   1.400       .  A
C1422      H1433   1.085       .  S
C1423      C1424   1.387       .  A
C1423      H1434   1.084       .  S
C1424      C1425   1.398       .  A
C1424      H1435   1.084       .  S
C1425      C1426   1.424       .  A
C1425      C1430   1.403       .  A
C1426      C1427   1.415       .  A
C1427      C1428   1.399       .  A
C1427      H1436   1.078       .  S
C1428      C1429   1.401       .  A
C1428      H1437   1.083       .  S
C1429      C1430   1.399       .  A
C1430      H1438   1.085       .  S
C1439      C1440   1.398       .  A
C1439      C1444   1.403       .  A
C1440      C1441   1.391       .  A
C1440      H1453   1.084       .  S
C1441      C1442   1.413       .  A
C1441      H1454   1.077       .  S
C1442      C1448   1.427       .  A
C1442      C1443   1.422       .  A
C1443      C1445   1.402       .  A
C1443      C1444   1.411       .  A
C1444      H1455   1.084       .  S
C1445      C1446   1.395       .  A
C1445      H1456   1.084       .  S
C1446      C1447   1.401       .  A
C1446      H1457   1.084       .  S
C1447      C1448   1.422       .  A
C1447      C1452   1.411   1_655  A
C1448      C1449   1.413       .  A
C1449      C1450   1.391   1_655  A
C1449      H1458   1.077       .  S
C1450      C1451   1.398       .  A
C1450      H1459   1.084       .  S
C1451      C1452   1.403       .  A
C1452      H1460   1.084       .  S
C1461      C1462   1.399       .  A
C1461      C1466   1.402       .  A
C1462      C1463   1.396       .  A
C1462      H1475   1.083       .  S
C1463      C1464   1.416       .  A
C1463      H1476   1.077       .  S
C1464      C1470   1.429       .  A
C1464      C1465   1.421       .  A
C1465      C1467   1.400       .  A
C1465      C1466   1.404       .  A
C1466      H1477   1.085       .  S
C1467      C1468   1.390       .  A
C1467      H1478   1.084       .  S
C1468      C1469   1.399       .  A
C1468      H1479   1.084       .  S
C1469      C1470   1.424       .  A
C1469      C1474   1.407       .  A
C1470      C1471   1.412       .  A
C1471      C1472   1.393       .  A
C1471      H1480   1.077       .  S
C1472      C1473   1.401       .  A
C1472      H1481   1.083       .  S
C1473      C1474   1.400       .  A
C1474      H1482   1.084       .  S
C1483      C1484   1.400       .  A
C1483      C1488   1.404       .  A
C1484      C1485   1.391       .  A
C1484      H1497   1.084       .  S
C1485      C1486   1.412       .  A
C1485      H1498   1.077       .  S
C1486      C1492   1.429       .  A
C1486      C1487   1.423       .  A
C1487      C1489   1.401       .  A
C1487      C1488   1.413       .  A
C1488      H1499   1.084       .  S
C1489      C1490   1.395       .  A
C1489      H1500   1.084       .  S
C1490      C1491   1.402       .  A
C1490      H1501   1.084       .  S
C1491      C1492   1.423       .  A
C1491      C1496   1.412       .  A
C1492      C1493   1.413       .  A
C1493      C1494   1.391       .  A
C1493      H1502   1.077       .  S
C1494      C1495   1.399       .  A
C1494      H1503   1.083       .  S
C1495      C1496   1.404       .  A
C1496      H1504   1.084       .  S
C1505      C1506   1.403       .  A
C1505      C1510   1.401       .  A
C1506      C1507   1.397       .  A
C1506      H1519   1.083       .  S
C1507      C1508   1.414       .  A
C1507      H1520   1.077       .  S
C1508      C1514   1.432       .  A
C1508      C1509   1.424       .  A
C1509      C1511   1.399       .  A
C1509      C1510   1.408       .  A
C1510      H1521   1.084       .  S
C1511      C1512   1.390       .  A
C1511      H1522   1.084       .  S
C1512      C1513   1.400       .  A
C1512      H1523   1.084       .  S
C1513      C1514   1.422       .  A
C1513      C1518   1.406       .  A
C1514      C1515   1.416       .  A
C1515      C1516   1.399       .  A
C1515      H1524   1.077       .  S
C1516      C1517   1.401       .  A
C1516      H1525   1.083       .  S
C1517      C1518   1.403       .  A
C1518      H1526   1.084       .  S
C1527      C1528   1.399       .  A
C1527      C1532   1.403       .  A
C1528      C1529   1.399       .  A
C1528      H1541   1.083       .  S
C1529      C1530   1.418       .  A
C1529      H1542   1.077       .  S
C1530      C1536   1.430       .  A
C1530      C1531   1.420       .  A
C1531      C1533   1.400       .  A
C1531      C1532   1.402       .  A
C1532      H1543   1.084       .  S
C1533      C1534   1.389       .  A
C1533      H1544   1.084       .  S
C1534      C1535   1.399       .  A
C1534      H1545   1.084       .  S
C1535      C1536   1.425       .  A
C1535      C1540   1.408       .  A
C1536      C1537   1.412       .  A
C1537      C1538   1.394       .  A
C1537      H1546   1.077       .  S
C1538      C1539   1.401       .  A
C1538      H1547   1.084       .  S
C1539      C1540   1.400       .  A
C1540      H1548   1.084       .  S
C1549      C1550   1.400       .  A
C1549      C1554   1.402       .  A
C1550      C1551   1.401       .  A
C1550      H1563   1.083       .  S
C1551      C1552   1.418       .  A
C1551      H1564   1.078       .  S
C1552      C1558   1.433       .  A
C1552      C1553   1.421       .  A
C1553      C1555   1.399       .  A
C1553      C1554   1.403       .  A
C1554      H1565   1.085       .  S
C1555      C1556   1.388       .  A
C1555      H1566   1.084       .  S
C1556      C1557   1.398       .  A
C1556      H1567   1.084       .  S
C1557      C1558   1.424       .  A
C1557      C1562   1.406       .  A
C1558      C1559   1.414       .  A
C1559      C1560   1.398       .  A
C1559      H1568   1.078       .  S
C1560      C1561   1.402       .  A
C1560      H1569   1.083       .  S
C1561      C1562   1.400       .  A
C1562      H1570   1.084       .  S
C1571      C1572   1.400       .  A
C1571      C1576   1.400       .  A
C1572      C1573   1.400       .  A
C1572      H1585   1.083       .  S
C1573      C1574   1.417       .  A
C1573      H1586   1.078       .  S
C1574      C1580   1.429       .  A
C1574      C1575   1.421       .  A
C1575      C1577   1.399       .  A
C1575      C1576   1.401       .  A
C1576      H1587   1.085       .  S
C1577      C1578   1.388       .  A
C1577      H1588   1.084       .  S
C1578      C1579   1.398       .  A
C1578      H1589   1.084       .  S
C1579      C1580   1.423       .  A
C1579      C1584   1.402       .  A
C1580      C1581   1.415       .  A
C1581      C1582   1.398       .  A
C1581      H1590   1.078       .  S
C1582      C1583   1.400       .  A
C1582      H1591   1.083       .  S
C1583      C1584   1.399       .  A
C1584      H1592   1.085       .  S
C1593      C1594   1.401       .  A
C1593      C1598   1.402       .  A
C1594      C1595   1.401       .  A
C1594      H1607   1.083       .  S
C1595      C1596   1.417       .  A
C1595      H1608   1.078       .  S
C1596      C1602   1.434       .  A
C1596      C1597   1.423       .  A
C1597      C1599   1.399       .  A
C1597      C1598   1.404       .  A
C1598      H1609   1.085       .  S
C1599      C1600   1.388       .  A
C1599      H1610   1.084       .  S
C1600      C1601   1.399       .  A
C1600      H1611   1.084       .  S
C1601      C1602   1.422       .  A
C1601      C1606   1.404       .  A
C1602      C1603   1.417       .  A
C1603      C1604   1.402       .  A
C1603      H1612   1.078       .  S
C1604      C1605   1.401       .  A
C1604      H1613   1.083       .  S
C1605      C1606   1.403       .  A
C1606      H1614   1.084       .  S
C1615      C1616   1.401       .  A
C1615      C1620   1.403       .  A
C1616      C1617   1.393       .  A
C1616      H1629   1.083       .  S
C1617      C1618   1.412       .  A
C1617      H1630   1.077       .  S
C1618      C1624   1.431       .  A
C1618      C1619   1.424       .  A
C1619      C1621   1.400       .  A
C1619      C1620   1.411       .  A
C1620      H1631   1.084       .  S
C1621      C1622   1.393       .  A
C1621      H1632   1.084       .  S
C1622      C1623   1.401       .  A
C1622      H1633   1.084       .  S
C1623      C1624   1.421       .  A
C1623      C1628   1.407       .  A
C1624      C1625   1.416       .  A
C1625      C1626   1.396       .  A
C1625      H1634   1.077       .  S
C1626      C1627   1.399       .  A
C1626      H1635   1.083       .  S
C1627      C1628   1.404       .  A
C1628      H1636   1.084       .  S
C1637      C1638   1.401       .  A
C1637      C1642   1.400       .  A
C1638      C1639   1.402       .  A
C1638      H1651   1.083       .  S
C1639      C1640   1.417       .  A
C1639      H1652   1.078       .  S
C1640      C1646   1.433   1_545  A
C1640      C1641   1.423       .  A
C1641      C1643   1.399       .  A
C1641      C1642   1.404       .  A
C1642      H1653   1.085       .  S
C1643      C1644   1.388       .  A
C1643      H1654   1.084       .  S
C1644      C1645   1.399       .  A
C1644      H1655   1.084       .  S
C1645      C1646   1.422   1_545  A
C1645      C1650   1.403   1_545  A
C1646      C1647   1.417       .  A
C1647      C1648   1.402       .  A
C1647      H1656   1.078       .  S
C1648      C1649   1.401       .  A
C1648      H1657   1.083       .  S
C1649      C1650   1.401       .  A
C1650      H1658   1.085       .  S
C1659      C1660   1.399       .  A
C1659      C1664   1.402       .  A
C1660      C1661   1.397       .  A
C1660      H1673   1.083       .  S
C1661      C1662   1.416       .  A
C1661      H1674   1.077       .  S
C1662      C1668   1.429       .  A
C1662      C1663   1.421       .  A
C1663      C1665   1.400       .  A
C1663      C1664   1.403       .  A
C1664      H1675   1.084       .  S
C1665      C1666   1.390       .  A
C1665      H1676   1.084       .  S
C1666      C1667   1.399       .  A
C1666      H1677   1.084       .  S
C1667      C1668   1.424       .  A
C1667      C1672   1.406       .  A
C1668      C1669   1.413       .  A
C1669      C1670   1.393       .  A
C1669      H1678   1.077       .  S
C1670      C1671   1.400       .  A
C1670      H1679   1.084       .  S
C1671      C1672   1.399       .  A
C1672      H1680   1.084       .  S
C1681      C1682   1.399       .  A
C1681      C1686   1.402       .  A
C1682      C1683   1.400       .  A
C1682      H1695   1.083       .  S
C1683      C1684   1.417       .  A
C1683      H1696   1.077       .  S
C1684      C1690   1.432       .  A
C1684      C1685   1.422       .  A
C1685      C1687   1.400       .  A
C1685      C1686   1.404       .  A
C1686      H1697   1.085       .  S
C1687      C1688   1.389       .  A
C1687      H1698   1.084       .  S
C1688      C1689   1.399       .  A
C1688      H1699   1.084       .  S
C1689      C1690   1.424       .  A
C1689      C1694   1.406       .  A
C1690      C1691   1.414       .  A
C1691      C1692   1.397       .  A
C1691      H1700   1.077       .  S
C1692      C1693   1.402       .  A
C1692      H1701   1.083       .  S
C1693      C1694   1.401       .  A
C1694      H1702   1.084       .  S
C1703      C1704   1.400       .  A
C1703      C1708   1.406       .  A
C1704      C1705   1.391       .  A
C1704      H1717   1.084       .  S
C1705      C1706   1.413       .  A
C1705      H1718   1.076       .  S
C1706      C1712   1.431       .  A
C1706      C1707   1.423       .  A
C1707      C1709   1.402       .  A
C1707      C1708   1.415       .  A
C1708      H1719   1.084       .  S
C1709      C1710   1.397       .  A
C1709      H1720   1.084       .  S
C1710      C1711   1.402       .  A
C1710      H1721   1.084       .  S
C1711      C1712   1.423       .  A
C1711      C1716   1.415       .  A
C1712      C1713   1.413       .  A
C1713      C1714   1.391       .  A
C1713      H1722   1.076       .  S
C1714      C1715   1.400       .  A
C1714      H1723   1.083       .  S
C1715      C1716   1.406       .  A
C1716      H1724   1.084       .  S
C1725      C1726   1.402       .  A
C1725      C1730   1.399       .  A
C1726      C1727   1.399       .  A
C1726      H1739   1.083       .  S
C1727      C1728   1.415       .  A
C1727      H1740   1.078       .  S
C1728      C1734   1.432       .  A
C1728      C1729   1.423       .  A
C1729      C1731   1.398       .  A
C1729      C1730   1.403       .  A
C1730      H1741   1.085       .  S
C1731      C1732   1.387       .  A
C1731      H1742   1.084       .  S
C1732      C1733   1.399       .  A
C1732      H1743   1.084       .  S
C1733      C1734   1.422       .  A
C1733      C1738   1.402       .  A
C1734      C1735   1.417       .  A
C1735      C1736   1.402       .  A
C1735      H1744   1.078       .  S
C1736      C1737   1.400       .  A
C1736      H1745   1.083       .  S
C1737      C1738   1.402       .  A
C1738      H1746   1.085       .  S
C1747      C1748   1.401       .  A
C1747      C1752   1.400       .  A
C1748      C1749   1.393       .  A
C1748      H1761   1.083       .  S
C1749      C1750   1.412       .  A
C1749      H1762   1.077       .  S
C1750      C1756   1.429       .  A
C1750      C1751   1.424       .  A
C1751      C1753   1.399       .  A
C1751      C1752   1.408       .  A
C1752      H1763   1.084       .  S
C1753      C1754   1.391       .  A
C1753      H1764   1.084       .  S
C1754      C1755   1.400       .  A
C1754      H1765   1.084       .  S
C1755      C1756   1.421       .  A
C1755      C1760   1.405       .  A
C1756      C1757   1.416       .  A
C1757      C1758   1.396       .  A
C1757      H1766   1.077       .  S
C1758      C1759   1.399       .  A
C1758      H1767   1.083       .  S
C1759      C1760   1.403       .  A
C1760      H1768   1.084       .  S
C1769      C1770   1.400       .  A
C1769      C1774   1.405       .  A
C1770      C1771   1.401       .  A
C1770      H1783   1.083       .  S
C1771      C1772   1.417       .  A
C1771      H1784   1.077       .  S
C1772      C1778   1.433       .  A
C1772      C1773   1.421       .  A
C1773      C1775   1.401       .  A
C1773      C1774   1.406       .  A
C1774      H1785   1.084       .  S
C1775      C1776   1.391       .  A
C1775      H1786   1.084       .  S
C1776      C1777   1.399       .  A
C1776      H1787   1.084       .  S
C1777      C1778   1.424       .  A
C1777      C1782   1.409       .  A
C1778      C1779   1.414       .  A
C1779      C1780   1.397       .  A
C1779      H1788   1.077       .  S
C1780      C1781   1.402       .  A
C1780      H1789   1.083       .  S
C1781      C1782   1.402       .  A
C1782      H1790   1.084       .  S
C1791      C1792   1.399       .  A
C1791      C1796   1.401       .  A
C1792      C1793   1.392       .  A
C1792      H1805   1.083       .  S
C1793      C1794   1.414       .  A
C1793      H1806   1.077       .  S
C1794      C1800   1.426       .  A
C1794      C1795   1.422       .  A
C1795      C1797   1.400       .  A
C1795      C1796   1.405       .  A
C1796      H1807   1.084       .  S
C1797      C1798   1.392       .  A
C1797      H1808   1.084       .  S
C1798      C1799   1.400       .  A
C1798      H1809   1.084       .  S
C1799      C1800   1.423       .  A
C1799      C1804   1.407       .  A
C1800      C1801   1.413       .  A
C1801      C1802   1.391       .  A
C1801      H1810   1.077       .  S
C1802      C1803   1.398       .  A
C1802      H1811   1.084       .  S
C1803      C1804   1.400       .  A
C1804      H1812   1.084       .  S
C1813      C1814   1.400       .  A
C1813      C1818   1.403       .  A
C1814      C1815   1.401       .  A
C1814      H1827   1.083       .  S
C1815      C1816   1.417       .  A
C1815      H1828   1.078       .  S
C1816      C1822   1.432       .  A
C1816      C1817   1.422       .  A
C1817      C1819   1.399       .  A
C1817      C1818   1.402       .  A
C1818      H1829   1.085       .  S
C1819      C1820   1.388       .  A
C1819      H1830   1.084       .  S
C1820      C1821   1.399       .  A
C1820      H1831   1.084       .  S
C1821      C1822   1.423       .  A
C1821      C1826   1.403       .  A
C1822      C1823   1.416       .  A
C1823      C1824   1.399       .  A
C1823      H1832   1.077       .  S
C1824      C1825   1.400       .  A
C1824      H1833   1.083       .  S
C1825      C1826   1.402       .  A
C1826      H1834   1.085       .  S
C1835      C1836   1.399       .  A
C1835      C1840   1.404       .  A
C1836      C1837   1.398       .  A
C1836      H1849   1.083       .  S
C1837      C1838   1.417       .  A
C1837      H1850   1.077       .  S
C1838      C1844   1.431       .  A
C1838      C1839   1.421       .  A
C1839      C1841   1.401       .  A
C1839      C1840   1.405       .  A
C1840      H1851   1.084       .  S
C1841      C1842   1.391       .  A
C1841      H1852   1.084       .  S
C1842      C1843   1.399       .  A
C1842      H1853   1.084       .  S
C1843      C1844   1.424       .  A
C1843      C1848   1.409       .  A
C1844      C1845   1.412       .  A
C1845      C1846   1.395       .  A
C1845      H1854   1.077       .  S
C1846      C1847   1.402       .  A
C1846      H1855   1.083       .  S
C1847      C1848   1.401       .  A
C1848      H1856   1.084       .  S
C1857      C1858   1.399       .  A
C1857      C1862   1.400       .  A
C1858      C1859   1.399       .  A
C1858      H1871   1.083       .  S
C1859      C1860   1.417   1_556  A
C1859      H1872   1.078       .  S
C1860      C1866   1.429       .  A
C1860      C1861   1.422   1_554  A
C1861      C1863   1.399   1_556  A
C1861      C1862   1.401       .  A
C1862      H1873   1.085       .  S
C1863      C1864   1.387       .  A
C1863      H1874   1.084       .  S
C1864      C1865   1.398       .  A
C1864      H1875   1.084       .  S
C1865      C1866   1.423       .  A
C1865      C1870   1.402       .  A
C1866      C1867   1.415       .  A
C1867      C1868   1.398       .  A
C1867      H1876   1.078       .  S
C1868      C1869   1.399       .  A
C1868      H1877   1.083       .  S
C1869      C1870   1.399       .  A
C1870      H1878   1.085       .  S
C1879      C1880   1.397       .  A
C1879      C1884   1.403       .  A
C1880      C1881   1.396       .  A
C1880      H1893   1.083       .  S
C1881      C1882   1.417       .  A
C1881      H1894   1.077       .  S
C1882      C1888   1.427       .  A
C1882      C1883   1.420       .  A
C1883      C1885   1.401       .  A
C1883      C1884   1.403       .  A
C1884      H1895   1.085       .  S
C1885      C1886   1.391       .  A
C1885      H1896   1.084       .  S
C1886      C1887   1.399       .  A
C1886      H1897   1.084       .  S
C1887      C1888   1.424       .  A
C1887      C1892   1.407       .  A
C1888      C1889   1.411       .  A
C1889      C1890   1.391       .  A
C1889      H1898   1.077       .  S
C1890      C1891   1.401       .  A
C1890      H1899   1.083       .  S
C1891      C1892   1.401       .  A
C1892      H1900   1.084       .  S
C1901      C1902   1.396       .  A
C1901      C1906   1.401       .  A
C1902      C1903   1.391       .  A
C1902      H1915   1.084       .  S
C1903      C1904   1.414       .  A
C1903      H1916   1.077       .  S
C1904      C1910   1.426       .  A
C1904      C1905   1.423       .  A
C1905      C1907   1.401       .  A
C1905      C1906   1.408       .  A
C1906      H1917   1.085       .  S
C1907      C1908   1.392       .  A
C1907      H1918   1.084       .  S
C1908      C1909   1.400       .  A
C1908      H1919   1.084       .  S
C1909      C1910   1.423       .  A
C1909      C1914   1.408       .  A
C1910      C1911   1.412       .  A
C1911      C1912   1.389       .  A
C1911      H1920   1.077       .  S
C1912      C1913   1.399       .  A
C1912      H1921   1.083       .  S
C1913      C1914   1.402       .  A
C1914      H1922   1.084       .  S
C1923      C1924   1.403       .  A
C1923      C1928   1.400       .  A
C1924      C1925   1.399       .  A
C1924      H1937   1.083       .  S
C1925      C1926   1.415       .  A
C1925      H1938   1.078       .  S
C1926      C1932   1.433       .  A
C1926      C1927   1.423       .  A
C1927      C1929   1.399       .  A
C1927      C1928   1.407       .  A
C1928      H1939   1.084       .  S
C1929      C1930   1.389       .  A
C1929      H1940   1.084       .  S
C1930      C1931   1.399       .  A
C1930      H1941   1.084       .  S
C1931      C1932   1.423       .  A
C1931      C1936   1.406       .  A
C1932      C1933   1.416       .  A
C1933      C1934   1.399       .  A
C1933      H1942   1.078       .  S
C1934      C1935   1.403       .  A
C1934      H1943   1.083       .  S
C1935      C1936   1.400       .  A
C1936      H1944   1.084       .  S
C1945      C1946   1.399       .  A
C1945      C1950   1.402       .  A
C1946      C1947   1.396       .  A
C1946      H1959   1.083       .  S
C1947      C1948   1.416       .  A
C1947      H1960   1.077       .  S
C1948      C1954   1.430       .  A
C1948      C1949   1.422       .  A
C1949      C1951   1.400       .  A
C1949      C1950   1.405       .  A
C1950      H1961   1.084       .  S
C1951      C1952   1.391       .  A
C1951      H1962   1.084       .  S
C1952      C1953   1.400       .  A
C1952      H1963   1.084       .  S
C1953      C1954   1.424       .  A
C1953      C1958   1.408       .  A
C1954      C1955   1.413       .  A
C1955      C1956   1.394       .  A
C1955      H1964   1.077       .  S
C1956      C1957   1.401       .  A
C1956      H1965   1.083       .  S
C1957      C1958   1.402       .  A
C1958      H1966   1.084       .  S
C1967      C1968   1.398       .  A
C1967      C1972   1.403       .  A
C1968      C1969   1.398       .  A
C1968      H1981   1.083       .  S
C1969      C1970   1.417       .  A
C1969      H1982   1.077       .  S
C1970      C1976   1.429       .  A
C1970      C1971   1.421       .  A
C1971      C1973   1.400       .  A
C1971      C1972   1.401       .  A
C1972      H1983   1.085       .  S
C1973      C1974   1.388       .  A
C1973      H1984   1.084       .  S
C1974      C1975   1.398       .  A
C1974      H1985   1.084       .  S
C1975      C1976   1.424       .  A
C1975      C1980   1.403       .  A
C1976      C1977   1.414       .  A
C1977      C1978   1.395       .  A
C1977      H1986   1.077       .  S
C1978      C1979   1.400       .  A
C1978      H1987   1.083       .  S
C1979      C1980   1.399       .  A
C1980      H1988   1.085       .  S
C1989      C1990   1.402       .  A
C1989      C1994   1.400       .  A
C1990      C1991   1.394       .  A
C1990      H2003   1.083       .  S
C1991      C1992   1.413       .  A
C1991      H2004   1.077       .  S
C1992      C1998   1.430       .  A
C1992      C1993   1.424       .  A
C1993      C1995   1.399       .  A
C1993      C1994   1.408       .  A
C1994      H2005   1.084       .  S
C1995      C1996   1.390       .  A
C1995      H2006   1.084       .  S
C1996      C1997   1.400       .  A
C1996      H2007   1.084       .  S
C1997      C1998   1.421       .  A
C1997      C2002   1.404       .  A
C1998      C1999   1.416       .  A
C1999      C2000   1.397       .  A
C1999      H2008   1.077       .  S
C2000      C2001   1.399       .  A
C2000      H2009   1.083       .  S
C2001      C2002   1.402       .  A
C2002      H2010   1.084       .  S
C2011      C2012   1.401       .  A
C2011      C2016   1.401       .  A
C2012      C2013   1.391       .  A
C2012      H2025   1.084       .  S
C2013      C2014   1.411       .  A
C2013      H2026   1.077       .  S
C2014      C2020   1.429       .  A
C2014      C2015   1.425       .  A
C2015      C2017   1.399       .  A
C2015      C2016   1.410       .  A
C2016      H2027   1.084       .  S
C2017      C2018   1.391       .  A
C2017      H2028   1.084       .  S
C2018      C2019   1.401       .  A
C2018      H2029   1.084       .  S
C2019      C2020   1.420       .  A
C2019      C2024   1.404       .  A
C2020      C2021   1.417       .  A
C2021      C2022   1.396       .  A
C2021      H2030   1.077       .  S
C2022      C2023   1.398       .  A
C2022      H2031   1.083       .  S
C2023      C2024   1.404       .  A
C2024      H2032   1.084       .  S
C2033      C2034   1.401       .  A
C2033      C2038   1.403       .  A
C2034      C2035   1.393       .  A
C2034      H2047   1.083       .  S
C2035      C2036   1.414       .  A
C2035      H2048   1.077       .  S
C2036      C2042   1.430       .  A
C2036      C2037   1.423       .  A
C2037      C2039   1.400       .  A
C2037      C2038   1.410       .  A
C2038      H2049   1.084       .  S
C2039      C2040   1.393       .  A
C2039      H2050   1.084       .  S
C2040      C2041   1.400       .  A
C2040      H2051   1.084       .  S
C2041      C2042   1.423       .  A
C2041      C2046   1.410       .  A
C2042      C2043   1.413       .  A
C2043      C2044   1.393       .  A
C2043      H2052   1.077       .  S
C2044      C2045   1.401       .  A
C2044      H2053   1.083       .  S
C2045      C2046   1.402       .  A
C2046      H2054   1.084       .  S
C2055      C2056   1.399       .  A
C2055      C2060   1.402       .  A
C2056      C2057   1.398       .  A
C2056      H2069   1.083       .  S
C2057      C2058   1.417       .  A
C2057      H2070   1.077       .  S
C2058      C2064   1.430       .  A
C2058      C2059   1.421       .  A
C2059      C2061   1.400       .  A
C2059      C2060   1.404       .  A
C2060      H2071   1.085       .  S
C2061      C2062   1.390       .  A
C2061      H2072   1.084       .  S
C2062      C2063   1.399       .  A
C2062      H2073   1.084       .  S
C2063      C2064   1.424       .  A
C2063      C2068   1.407       .  A
C2064      C2065   1.412       .  A
C2065      C2066   1.394       .  A
C2065      H2074   1.077       .  S
C2066      C2067   1.402       .  A
C2066      H2075   1.083       .  S
C2067      C2068   1.400       .  A
C2068      H2076   1.084       .  S
C2077      C2078   1.400       .  A
C2077      C2082   1.405       .  A
C2078      C2079   1.402       .  A
C2078      H2091   1.083       .  S
C2079      C2080   1.418       .  A
C2079      H2092   1.077       .  S
C2080      C2086   1.434       .  A
C2080      C2081   1.421       .  A
C2081      C2083   1.400       .  A
C2081      C2082   1.406       .  A
C2082      H2093   1.084       .  S
C2083      C2084   1.391       .  A
C2083      H2094   1.084       .  S
C2084      C2085   1.399       .  A
C2084      H2095   1.084       .  S
C2085      C2086   1.424       .  A
C2085      C2090   1.410       .  A
C2086      C2087   1.414       .  A
C2087      C2088   1.398       .  A
C2087      H2096   1.077       .  S
C2088      C2089   1.402       .  A
C2088      H2097   1.083       .  S
C2089      C2090   1.402       .  A
C2090      H2098   1.084       .  S
C2099      C2100   1.399       .  A
C2099      C2104   1.401       .  A
C2100      C2101   1.392   1_545  A
C2100      H2113   1.083   1_545  S
C2101      C2102   1.414       .  A
C2101      H2114   1.077       .  S
C2102      C2108   1.427       .  A
C2102      C2103   1.422   1_565  A
C2103      C2105   1.400       .  A
C2103      C2104   1.406       .  A
C2104      H2115   1.084       .  S
C2105      C2106   1.391       .  A
C2105      H2116   1.084       .  S
C2106      C2107   1.400   1_545  A
C2106      H2117   1.084       .  S
C2107      C2108   1.423       .  A
C2107      C2112   1.406       .  A
C2108      C2109   1.414       .  A
C2109      C2110   1.392       .  A
C2109      H2118   1.077       .  S
C2110      C2111   1.398       .  A
C2110      H2119   1.084       .  S
C2111      C2112   1.400       .  A
C2112      H2120   1.085       .  S
C2121      C2122   1.399       .  A
C2121      C2126   1.401       .  A
C2122      C2123   1.397       .  A
C2122      H2135   1.083       .  S
C2123      C2124   1.417       .  A
C2123      H2136   1.077       .  S
C2124      C2130   1.429       .  A
C2124      C2125   1.421       .  A
C2125      C2127   1.399       .  A
C2125      C2126   1.402       .  A
C2126      H2137   1.084       .  S
C2127      C2128   1.389       .  A
C2127      H2138   1.084       .  S
C2128      C2129   1.398       .  A
C2128      H2139   1.084       .  S
C2129      C2130   1.424       .  A
C2129      C2134   1.406       .  A
C2130      C2131   1.412       .  A
C2131      C2132   1.393       .  A
C2131      H2140   1.077       .  S
C2132      C2133   1.401       .  A
C2132      H2141   1.083       .  S
C2133      C2134   1.399       .  A
C2134      H2142   1.084       .  S
C2143      C2144   1.399       .  A
C2143      C2148   1.403       .  A
C2144      C2145   1.400       .  A
C2144      H2157   1.083       .  S
C2145      C2146   1.417       .  A
C2145      H2158   1.077       .  S
C2146      C2152   1.433       .  A
C2146      C2147   1.422       .  A
C2147      C2149   1.400       .  A
C2147      C2148   1.404       .  A
C2148      H2159   1.085       .  S
C2149      C2150   1.389       .  A
C2149      H2160   1.084       .  S
C2150      C2151   1.399       .  A
C2150      H2161   1.084       .  S
C2151      C2152   1.424       .  A
C2151      C2156   1.407       .  A
C2152      C2153   1.414       .  A
C2153      C2154   1.398       .  A
C2153      H2162   1.077       .  S
C2154      C2155   1.402       .  A
C2154      H2163   1.083       .  S
C2155      C2156   1.401       .  A
C2156      H2164   1.084       .  S
C2165      C2166   1.400       .  A
C2165      C2170   1.403       .  A
C2166      C2167   1.402       .  A
C2166      H2179   1.083       .  S
C2167      C2168   1.417       .  A
C2167      H2180   1.077       .  S
C2168      C2174   1.434       .  A
C2168      C2169   1.422       .  A
C2169      C2171   1.399       .  A
C2169      C2170   1.404       .  A
C2170      H2181   1.084       .  S
C2171      C2172   1.388       .  A
C2171      H2182   1.084       .  S
C2172      C2173   1.399       .  A
C2172      H2183   1.084       .  S
C2173      C2174   1.422       .  A
C2173      C2178   1.404       .  A
C2174      C2175   1.417       .  A
C2175      C2176   1.401       .  A
C2175      H2184   1.077       .  S
C2176      C2177   1.401       .  A
C2176      H2185   1.083       .  S
C2177      C2178   1.403       .  A
C2178      H2186   1.084       .  S
C2187      C2188   1.400       .  A
C2187      C2192   1.401       .  A
C2188      C2189   1.394       .  A
C2188      H2201   1.083       .  S
C2189      C2190   1.414       .  A
C2189      H2202   1.077       .  S
C2190      C2196   1.429       .  A
C2190      C2191   1.423       .  A
C2191      C2193   1.400       .  A
C2191      C2192   1.407       .  A
C2192      H2203   1.084       .  S
C2193      C2194   1.390       .  A
C2193      H2204   1.084       .  S
C2194      C2195   1.400       .  A
C2194      H2205   1.084       .  S
C2195      C2196   1.422       .  A
C2195      C2200   1.405       .  A
C2196      C2197   1.415       .  A
C2197      C2198   1.395       .  A
C2197      H2206   1.077       .  S
C2198      C2199   1.399       .  A
C2198      H2207   1.083       .  S
C2199      C2200   1.403       .  A
C2200      H2208   1.085       .  S
C2209      C2210   1.402       .  A
C2209      C2214   1.402       .  A
C2210      C2211   1.398       .  A
C2210      H2223   1.083       .  S
C2211      C2212   1.414       .  A
C2211      H2224   1.077       .  S
C2212      C2218   1.433       .  A
C2212      C2213   1.424       .  A
C2213      C2215   1.399       .  A
C2213      C2214   1.408       .  A
C2214      H2225   1.084       .  S
C2215      C2216   1.390       .  A
C2215      H2226   1.084       .  S
C2216      C2217   1.400       .  A
C2216      H2227   1.084       .  S
C2217      C2218   1.421       .  A
C2217      C2222   1.405       .  A
C2218      C2219   1.417       .  A
C2219      C2220   1.400       .  A
C2219      H2228   1.077       .  S
C2220      C2221   1.399       .  A
C2220      H2229   1.083       .  S
C2221      C2222   1.404       .  A
C2222      H2230   1.084       .  S
C2231      C2232   1.402       .  A
C2231      C2236   1.401       .  A
C2232      C2233   1.395       .  A
C2232      H2245   1.083       .  S
C2233      C2234   1.413       .  A
C2233      H2246   1.078       .  S
C2234      C2240   1.431       .  A
C2234      C2235   1.424       .  A
C2235      C2237   1.399       .  A
C2235      C2236   1.407       .  A
C2236      H2247   1.084       .  S
C2237      C2238   1.390       .  A
C2237      H2248   1.084       .  S
C2238      C2239   1.400       .  A
C2238      H2249   1.084       .  S
C2239      C2240   1.421       .  A
C2239      C2244   1.403       .  A
C2240      C2241   1.418       .  A
C2241      C2242   1.400       .  A
C2241      H2250   1.078       .  S
C2242      C2243   1.399       .  A
C2242      H2251   1.083       .  S
C2243      C2244   1.403       .  A
C2244      H2252   1.085       .  S
C2253      C2254   1.398       .  A
C2253      C2258   1.402       .  A
C2254      C2255   1.397       .  A
C2254      H2267   1.083       .  S
C2255      C2256   1.416       .  A
C2255      H2268   1.077       .  S
C2256      C2262   1.430       .  A
C2256      C2257   1.422       .  A
C2257      C2259   1.400       .  A
C2257      C2258   1.404       .  A
C2258      H2269   1.085       .  S
C2259      C2260   1.390       .  A
C2259      H2270   1.084       .  S
C2260      C2261   1.399       .  A
C2260      H2271   1.084       .  S
C2261      C2262   1.423       .  A
C2261      C2266   1.406       .  A
C2262      C2263   1.414       .  A
C2263      C2264   1.395       .  A
C2263      H2272   1.077       .  S
C2264      C2265   1.400       .  A
C2264      H2273   1.083       .  S
C2265      C2266   1.401       .  A
C2266      H2274   1.084       .  S
C2275      C2276   1.401       .  A
C2275      C2280   1.401       .  A
C2276      C2277   1.393       .  A
C2276      H2289   1.083       .  S
C2277      C2278   1.413       .  A
C2277      H2290   1.077       .  S
C2278      C2284   1.428       .  A
C2278      C2279   1.423       .  A
C2279      C2281   1.400       .  A
C2279      C2280   1.407       .  A
C2280      H2291   1.084       .  S
C2281      C2282   1.391       .  A
C2281      H2292   1.084       .  S
C2282      C2283   1.400       .  A
C2282      H2293   1.084       .  S
C2283      C2284   1.422       .  A
C2283      C2288   1.406       .  A
C2284      C2285   1.414       .  A
C2285      C2286   1.393       .  A
C2285      H2294   1.077       .  S
C2286      C2287   1.398       .  A
C2286      H2295   1.084       .  S
C2287      C2288   1.400       .  A
C2288      H2296   1.085       .  S
C2297      C2298   1.400       .  A
C2297      C2302   1.404       .  A
C2298      C2299   1.391       .  A
C2298      H2311   1.083       .  S
C2299      C2300   1.413       .  A
C2299      H2312   1.076       .  S
C2300      C2306   1.428       .  A
C2300      C2301   1.422       .  A
C2301      C2303   1.401       .  A
C2301      C2302   1.411       .  A
C2302      H2313   1.084       .  S
C2303      C2304   1.394       .  A
C2303      H2314   1.084       .  S
C2304      C2305   1.401       .  A
C2304      H2315   1.084       .  S
C2305      C2306   1.423       .  A
C2305      C2310   1.411       .  A
C2306      C2307   1.412       .  A
C2307      C2308   1.390       .  A
C2307      H2316   1.076       .  S
C2308      C2309   1.400       .  A
C2308      H2317   1.083       .  S
C2309      C2310   1.404       .  A
C2310      H2318   1.084       .  S
C2319      C2320   1.399       .  A
C2319      C2324   1.402       .  A
C2320      C2321   1.396       .  A
C2320      H2333   1.083       .  S
C2321      C2322   1.416       .  A
C2321      H2334   1.077       .  S
C2322      C2328   1.429       .  A
C2322      C2323   1.422       .  A
C2323      C2325   1.400       .  A
C2323      C2324   1.404       .  A
C2324      H2335   1.084       .  S
C2325      C2326   1.390       .  A
C2325      H2336   1.084       .  S
C2326      C2327   1.399       .  A
C2326      H2337   1.084       .  S
C2327      C2328   1.424       .  A
C2327      C2332   1.406       .  A
C2328      C2329   1.414       .  A
C2329      C2330   1.393       .  A
C2329      H2338   1.077       .  S
C2330      C2331   1.400       .  A
C2330      H2339   1.084       .  S
C2331      C2332   1.399       .  A
C2332      H2340   1.085       .  S
C2341      C2342   1.403       .  A
C2341      C2346   1.402       .  A
C2342      C2343   1.396       .  A
C2342      H2355   1.083       .  S
C2343      C2344   1.413       .  A
C2343      H2356   1.077       .  S
C2344      C2350   1.433       .  A
C2344      C2345   1.424       .  A
C2345      C2347   1.400       .  A
C2345      C2346   1.411       .  A
C2346      H2357   1.084       .  S
C2347      C2348   1.392       .  A
C2347      H2358   1.084       .  S
C2348      C2349   1.400       .  A
C2348      H2359   1.084       .  S
C2349      C2350   1.421       .  A
C2349      C2354   1.407       .  A
C2350      C2351   1.417       .  A
C2351      C2352   1.398       .  A
C2351      H2360   1.077       .  S
C2352      C2353   1.400       .  A
C2352      H2361   1.083       .  S
C2353      C2354   1.404       .  A
C2354      H2362   1.084       .  S
C2363      C2364   1.399       .  A
C2363      C2368   1.401       .  A
C2364      C2365   1.398       .  A
C2364      H2377   1.083       .  S
C2365      C2366   1.416       .  A
C2365      H2378   1.077       .  S
C2366      C2372   1.430   1_556  A
C2366      C2367   1.422       .  A
C2367      C2369   1.399       .  A
C2367      C2368   1.404       .  A
C2368      H2379   1.085       .  S
C2369      C2370   1.389   1_556  A
C2369      H2380   1.084       .  S
C2370      C2371   1.399       .  A
C2370      H2381   1.084       .  S
C2371      C2372   1.423       .  A
C2371      C2376   1.405       .  A
C2372      C2373   1.415       .  A
C2373      C2374   1.397       .  A
C2373      H2382   1.077       .  S
C2374      C2375   1.398       .  A
C2374      H2383   1.083       .  S
C2375      C2376   1.401       .  A
C2376      H2384   1.085       .  S
C2385      C2386   1.402       .  A
C2385      C2390   1.400       .  A
C2386      C2387   1.398       .  A
C2386      H2399   1.083       .  S
C2387      C2388   1.414       .  A
C2387      H2400   1.077       .  S
C2388      C2394   1.433       .  A
C2388      C2389   1.425       .  A
C2389      C2391   1.398       .  A
C2389      C2390   1.406       .  A
C2390      H2401   1.084       .  S
C2391      C2392   1.388       .  A
C2391      H2402   1.084       .  S
C2392      C2393   1.399       .  A
C2392      H2403   1.084       .  S
C2393      C2394   1.421       .  A
C2393      C2398   1.401       .  A
C2394      C2395   1.419       .  A
C2395      C2396   1.403       .  A
C2395      H2404   1.077       .  S
C2396      C2397   1.400       .  A
C2396      H2405   1.083       .  S
C2397      C2398   1.403       .  A
C2398      H2406   1.085       .  S
C2407      C2408   1.401       .  A
C2407      C2412   1.400       .  A
C2408      C2409   1.394       .  A
C2408      H2421   1.083       .  S
C2409      C2410   1.413       .  A
C2409      H2422   1.077       .  S
C2410      C2416   1.430       .  A
C2410      C2411   1.424       .  A
C2411      C2413   1.399       .  A
C2411      C2412   1.407       .  A
C2412      H2423   1.084       .  S
C2413      C2414   1.390       .  A
C2413      H2424   1.084       .  S
C2414      C2415   1.400       .  A
C2414      H2425   1.084       .  S
C2415      C2416   1.421       .  A
C2415      C2420   1.404       .  A
C2416      C2417   1.416       .  A
C2417      C2418   1.397       .  A
C2417      H2426   1.077       .  S
C2418      C2419   1.399       .  A
C2418      H2427   1.083       .  S
C2419      C2420   1.402       .  A
C2420      H2428   1.085       .  S
C2429      C2430   1.402       .  A
C2429      C2434   1.401       .  A
C2430      C2431   1.405       .  A
C2430      H2443   1.083       .  S
C2431      C2432   1.418       .  A
C2431      H2444   1.078       .  S
C2432      C2438   1.435       .  A
C2432      C2433   1.422       .  A
C2433      C2435   1.398       .  A
C2433      C2434   1.401       .  A
C2434      H2445   1.085       .  S
C2435      C2436   1.386       .  A
C2435      H2446   1.084       .  S
C2436      C2437   1.398       .  A
C2436      H2447   1.084       .  S
C2437      C2438   1.423       .  A
C2437      C2442   1.403       .  A
C2438      C2439   1.417       .  A
C2439      C2440   1.404       .  A
C2439      H2448   1.078       .  S
C2440      C2441   1.402       .  A
C2440      H2449   1.083       .  S
C2441      C2442   1.402       .  A
C2442      H2450   1.085       .  S
C2451      C2452   1.402       .  A
C2451      C2456   1.400       .  A
C2452      C2453   1.398       .  A
C2452      H2465   1.083       .  S
C2453      C2454   1.414       .  A
C2453      H2466   1.078       .  S
C2454      C2460   1.430       .  A
C2454      C2455   1.424       .  A
C2455      C2457   1.398       .  A
C2455      C2456   1.404       .  A
C2456      H2467   1.085       .  S
C2457      C2458   1.388       .  A
C2457      H2468   1.084       .  S
C2458      C2459   1.399       .  A
C2458      H2469   1.084       .  S
C2459      C2460   1.421       .  A
C2459      C2464   1.401       .  A
C2460      C2461   1.417       .  A
C2461      C2462   1.400       .  A
C2461      H2470   1.078       .  S
C2462      C2463   1.400       .  A
C2462      H2471   1.083       .  S
C2463      C2464   1.401       .  A
C2464      H2472   1.085       .  S
C2473      C2474   1.399       .  A
C2473      C2478   1.403       .  A
C2474      C2475   1.398       .  A
C2474      H2487   1.083       .  S
C2475      C2476   1.417       .  A
C2475      H2488   1.078       .  S
C2476      C2482   1.430       .  A
C2476      C2477   1.421       .  A
C2477      C2479   1.400       .  A
C2477      C2478   1.404       .  A
C2478      H2489   1.085       .  S
C2479      C2480   1.390       .  A
C2479      H2490   1.084       .  S
C2480      C2481   1.399       .  A
C2480      H2491   1.084       .  S
C2481      C2482   1.424       .  A
C2481      C2486   1.408       .  A
C2482      C2483   1.413       .  A
C2483      C2484   1.394       .  A
C2483      H2492   1.078       .  S
C2484      C2485   1.400       .  A
C2484      H2493   1.083       .  S
C2485      C2486   1.401       .  A
C2486      H2494   1.085       .  S
C2495      C2496   1.399       .  A
C2495      C2500   1.400       .  A
C2496      C2497   1.394       .  A
C2496      H2509   1.084       .  S
C2497      C2498   1.413       .  A
C2497      H2510   1.077       .  S
C2498      C2504   1.429       .  A
C2498      C2499   1.424       .  A
C2499      C2501   1.399       .  A
C2499      C2500   1.407       .  A
C2500      H2511   1.085       .  S
C2501      C2502   1.390       .  A
C2501      H2512   1.084       .  S
C2502      C2503   1.399       .  A
C2502      H2513   1.084       .  S
C2503      C2504   1.421       .  A
C2503      C2508   1.402       .  A
C2504      C2505   1.417       .  A
C2505      C2506   1.397       .  A
C2505      H2514   1.077       .  S
C2506      C2507   1.398       .  A
C2506      H2515   1.083       .  S
C2507      C2508   1.400       .  A
C2508      H2516   1.085       .  S
C2517      C2518   1.401       .  A
C2517      C2522   1.402       .  A
C2518      C2519   1.394       .  A
C2518      H2531   1.084       .  S
C2519      C2520   1.412       .  A
C2519      H2532   1.077       .  S
C2520      C2526   1.430       .  A
C2520      C2521   1.424       .  A
C2521      C2523   1.400       .  A
C2521      C2522   1.410       .  A
C2522      H2533   1.084       .  S
C2523      C2524   1.392       .  A
C2523      H2534   1.084       .  S
C2524      C2525   1.401       .  A
C2524      H2535   1.084       .  S
C2525      C2526   1.421       .  A
C2525      C2530   1.406       .  A
C2526      C2527   1.417       .  A
C2527      C2528   1.398       .  A
C2527      H2536   1.077       .  S
C2528      C2529   1.399       .  A
C2528      H2537   1.083       .  S
C2529      C2530   1.404       .  A
C2530      H2538   1.084       .  S
C2539      C2540   1.400       .  A
C2539      C2544   1.400       .  A
C2540      C2541   1.393       .  A
C2540      H2553   1.084       .  S
C2541      C2542   1.413       .  A
C2541      H2554   1.076       .  S
C2542      C2548   1.429       .  A
C2542      C2543   1.424       .  A
C2543      C2545   1.399       .  A
C2543      C2544   1.407       .  A
C2544      H2555   1.084       .  S
C2545      C2546   1.391       .  A
C2545      H2556   1.084       .  S
C2546      C2547   1.401       .  A
C2546      H2557   1.084       .  S
C2547      C2548   1.421       .  A
C2547      C2552   1.405       .  A
C2548      C2549   1.416       .  A
C2549      C2550   1.396       .  A
C2549      H2558   1.076       .  S
C2550      C2551   1.399       .  A
C2550      H2559   1.083       .  S
C2551      C2552   1.404       .  A
C2552      H2560   1.084       .  S
C2561      C2562   1.402       .  A
C2561      C2566   1.400       .  A
C2562      C2563   1.405       .  A
C2562      H2575   1.083       .  S
C2563      C2564   1.417       .  A
C2563      H2576   1.078       .  S
C2564      C2570   1.435       .  A
C2564      C2565   1.423       .  A
C2565      C2567   1.397       .  A
C2565      C2566   1.401       .  A
C2566      H2577   1.085       .  S
C2567      C2568   1.385       .  A
C2567      H2578   1.084       .  S
C2568      C2569   1.398       .  A
C2568      H2579   1.084       .  S
C2569      C2570   1.422       .  A
C2569      C2574   1.399       .  A
C2570      C2571   1.418       .  A
C2571      C2572   1.405       .  A
C2571      H2580   1.078       .  S
C2572      C2573   1.402       .  A
C2572      H2581   1.083       .  S
C2573      C2574   1.400       .  A
C2574      H2582   1.085       .  S
C2583      C2584   1.400       .  A
C2583      C2588   1.402       .  A
C2584      C2585   1.393       .  A
C2584      H2597   1.083       .  S
C2585      C2586   1.413       .  A
C2585      H2598   1.077       .  S
C2586      C2592   1.429       .  A
C2586      C2587   1.423       .  A
C2587      C2589   1.400       .  A
C2587      C2588   1.406       .  A
C2588      H2599   1.084       .  S
C2589      C2590   1.390       .  A
C2589      H2600   1.084       .  S
C2590      C2591   1.400       .  A
C2590      H2601   1.084       .  S
C2591      C2592   1.422       .  A
C2591      C2596   1.404       .  A
C2592      C2593   1.416       .  A
C2593      C2594   1.396       .  A
C2593      H2602   1.077       .  S
C2594      C2595   1.397       .  A
C2594      H2603   1.083       .  S
C2595      C2596   1.403       .  A
C2596      H2604   1.085       .  S
C2605      C2606   1.398       .  A
C2605      C2610   1.400       .  A
C2606      C2607   1.393       .  A
C2606      H2619   1.084       .  S
C2607      C2608   1.413       .  A
C2607      H2620   1.076       .  S
C2608      C2614   1.428       .  A
C2608      C2609   1.424       .  A
C2609      C2611   1.399       .  A
C2609      C2610   1.406       .  A
C2610      H2621   1.084       .  S
C2611      C2612   1.390       .  A
C2611      H2622   1.084       .  S
C2612      C2613   1.400       .  A
C2612      H2623   1.084       .  S
C2613      C2614   1.420       .  A
C2613      C2618   1.403       .  A
C2614      C2615   1.417       .  A
C2615      C2616   1.397       .  A
C2615      H2624   1.076       .  S
C2616      C2617   1.397       .  A
C2616      H2625   1.083       .  S
C2617      C2618   1.404       .  A
C2618      H2626   1.084       .  S
C2627      C2628   1.400       .  A
C2627      C2632   1.401       .  A
C2628      C2629   1.394       .  A
C2628      H2641   1.084       .  S
C2629      C2630   1.413       .  A
C2629      H2642   1.077       .  S
C2630      C2636   1.428       .  A
C2630      C2631   1.424       .  A
C2631      C2633   1.400       .  A
C2631      C2632   1.408       .  A
C2632      H2643   1.084       .  S
C2633      C2634   1.391       .  A
C2633      H2644   1.084       .  S
C2634      C2635   1.400       .  A
C2634      H2645   1.084       .  S
C2635      C2636   1.420       .  A
C2635      C2640   1.403       .  A
C2636      C2637   1.416       .  A
C2637      C2638   1.396       .  A
C2637      H2646   1.077       .  S
C2638      C2639   1.398       .  A
C2638      H2647   1.083       .  S
C2639      C2640   1.402       .  A
C2640      H2648   1.085       .  S
C2649      C2650   1.400       .  A
C2649      C2654   1.399       .  A
C2650      C2651   1.392       .  A
C2650      H2663   1.084       .  S
C2651      C2652   1.412       .  A
C2651      H2664   1.077       .  S
C2652      C2658   1.428       .  A
C2652      C2653   1.425       .  A
C2653      C2655   1.399       .  A
C2653      C2654   1.407       .  A
C2654      H2665   1.084       .  S
C2655      C2656   1.389       .  A
C2655      H2666   1.084       .  S
C2656      C2657   1.400       .  A
C2656      H2667   1.084       .  S
C2657      C2658   1.420       .  A
C2657      C2662   1.401       .  A
C2658      C2659   1.418       .  A
C2659      C2660   1.398       .  A
C2659      H2668   1.077       .  S
C2660      C2661   1.399       .  A
C2660      H2669   1.083       .  S
C2661      C2662   1.402       .  A
C2662      H2670   1.084       .  S
C2671      C2672   1.401       .  A
C2671      C2676   1.402       .  A
C2672      C2673   1.397       .  A
C2672      H2685   1.083       .  S
C2673      C2674   1.414       .  A
C2673      H2686   1.077       .  S
C2674      C2680   1.431       .  A
C2674      C2675   1.423       .  A
C2675      C2677   1.400       .  A
C2675      C2676   1.407       .  A
C2676      H2687   1.084       .  S
C2677      C2678   1.391       .  A
C2677      H2688   1.084       .  S
C2678      C2679   1.400       .  A
C2678      H2689   1.084       .  S
C2679      C2680   1.422       .  A
C2679      C2684   1.406       .  A
C2680      C2681   1.416       .  A
C2681      C2682   1.398       .  A
C2681      H2690   1.077       .  S
C2682      C2683   1.399       .  A
C2682      H2691   1.083       .  S
C2683      C2684   1.403       .  A
C2684      H2692   1.084       .  S
C2693      C2694   1.401       .  A
C2693      C2698   1.401       .  A
C2694      C2695   1.401       .  A
C2694      H2707   1.083       .  S
C2695      C2696   1.417       .  A
C2695      H2708   1.078       .  S
C2696      C2702   1.433       .  A
C2696      C2697   1.422       .  A
C2697      C2699   1.399       .  A
C2697      C2698   1.402       .  A
C2698      H2709   1.085       .  S
C2699      C2700   1.387   1_455  A
C2699      H2710   1.084       .  S
C2700      C2701   1.398       .  A
C2700      H2711   1.084       .  S
C2701      C2702   1.423   1_655  A
C2701      C2706   1.403       .  A
C2702      C2703   1.416       .  A
C2703      C2704   1.401       .  A
C2703      H2712   1.078       .  S
C2704      C2705   1.401   1_455  A
C2704      H2713   1.083       .  S
C2705      C2706   1.399       .  A
C2706      H2714   1.085       .  S
C2715      C2716   1.401       .  A
C2715      C2720   1.405       .  A
C2716      C2717   1.391       .  A
C2716      H2729   1.083       .  S
C2717      C2718   1.412       .  A
C2717      H2730   1.076       .  S
C2718      C2724   1.431       .  A
C2718      C2719   1.423       .  A
C2719      C2721   1.401       .  A
C2719      C2720   1.414       .  A
C2720      H2731   1.084       .  S
C2721      C2722   1.395       .  A
C2721      H2732   1.084       .  S
C2722      C2723   1.402       .  A
C2722      H2733   1.084       .  S
C2723      C2724   1.422       .  A
C2723      C2728   1.412       .  A
C2724      C2725   1.414       .  A
C2725      C2726   1.393       .  A
C2725      H2734   1.076       .  S
C2726      C2727   1.400       .  A
C2726      H2735   1.083       .  S
C2727      C2728   1.405       .  A
C2728      H2736   1.084       .  S
