geometry optimzed in LAMMPS
_audit_creation_date              2020-12-01 
_audit_creation_method            'lammps2cif' 
_symmetry_space_group_name_H-M    'P1' 
_symmetry_Int_Tables_number       1 
_symmetry_cell_setting            triclinic 
loop_ 
_symmetry_equiv_pos_as_xyz 
  x,y,z 
_cell_length_a                    33.94927833 
_cell_length_b                    33.94803632792982 
_cell_length_c                    66.05220079772873 
_cell_angle_alpha                 90.07104100904125 
_cell_angle_beta                  89.69678137951364 
_cell_angle_gamma                 89.31965749328141 
loop_ 
_atom_site_label 
_atom_site_type_symbol 
_atom_site_fract_x 
_atom_site_fract_y 
_atom_site_fract_z 
_atom_site_charge 
In1        In  0.83221554  0.41095623  0.06959558     1.36900
C2          C  0.91060436  0.41478450  0.07080836     0.77600
O3          O  0.84364591  0.35383960  0.08527337    -0.60800
O4          O  0.79963317  0.35507962  0.06286505    -0.51700
C5          C  0.78780601  0.44959988  0.09645524     0.70300
O6          O  0.82429592  0.45469155  0.09445146    -0.46600
C7          C  0.82013178  0.44751206  0.03447788     0.75000
O8          O  0.88904960  0.42199698  0.08597575    -0.58400
O9          O  0.82103696  0.41055676  0.03606626    -0.48500
O10         O  0.89163606  0.40511347  0.05526268    -0.54900
C11         C  0.81889991  0.33456427  0.07537191     0.85200
O12         O  0.77376271  0.42411832  0.08471077    -0.56800
O13         O  0.82346661  0.46553919  0.05105239    -0.60100
In14       In  0.15980024  0.42736165  0.06361952     1.36900
C15         C  0.08135584  0.42378800  0.06583907     0.77600
O16         O  0.14942504  0.48335240  0.04665247    -0.60800
O17         O  0.17708920  0.43570417  0.03120954    -0.51700
C18         C  0.20777197  0.46510678  0.08883555     0.70300
O19         O  0.17177307  0.45966902  0.09247109    -0.46600
C20         C  0.17819565  0.35095057  0.06626134     0.75000
O21         O  0.10179960  0.43881814  0.07970152    -0.58400
O22         O  0.18879293  0.37211587  0.05164316    -0.48500
O23         O  0.10142201  0.41041813  0.05126411    -0.54900
C24         C  0.16364636  0.47039031  0.03023516     0.85200
O25         O  0.21954858  0.45018288  0.07239747    -0.56800
O26         O  0.16025275  0.36974513  0.08002369    -0.60100
In27       In  0.83138722  0.58923916  0.92997949     1.36900
C28         C  0.90890598  0.59155415  0.92608974     0.77600
O29         O  0.82396804  0.64627088  0.91311661    -0.60800
O30         O  0.81766079  0.64730411  0.94485623    -0.51700
C31         C  0.78396724  0.55563627  0.90335821     0.70300
O32         O  0.81986180  0.56189138  0.89979247    -0.46600
C33         C  0.82095433  0.54368553  0.96234284     0.75000
O34         O  0.88809856  0.56957935  0.91515930    -0.58400
O35         O  0.80115920  0.57465631  0.95918853    -0.48500
O36         O  0.89010323  0.61054679  0.93943242    -0.54900
C37         C  0.81886394  0.66708863  0.92876471     0.85200
O38         O  0.77201184  0.56808511  0.92029570    -0.56800
O39         O  0.84605091  0.53613010  0.94870324    -0.60100
In40       In  0.15553652  0.60896174  0.92418840     1.36900
C41         C  0.07798595  0.60154606  0.92099339     0.77600
O42         O  0.15374420  0.55265850  0.94143549    -0.60800
O43         O  0.16633035  0.60469431  0.95759763    -0.51700
C44         C  0.20787694  0.57886405  0.89819022     0.70300
O45         O  0.17314948  0.58795608  0.89334542    -0.46600
C46         C  0.16949996  0.68581901  0.92104840     0.75000
O47         O  0.10189074  0.57949645  0.91155332    -0.58400
O48         O  0.18172755  0.66526294  0.93570501    -0.48500
O49         O  0.09399275  0.62796314  0.93141367    -0.54900
C50         C  0.16076977  0.56808579  0.95837935     0.85200
O51         O  0.21610562  0.58587090  0.91642346    -0.56800
O52         O  0.15129697  0.66634677  0.90792973    -0.60100
In53       In  0.84442239  0.08833074  0.07008336     1.36900
C54         C  0.92283364  0.09505696  0.07103456     0.77600
O55         O  0.84962680  0.03078199  0.05342942    -0.60800
O56         O  0.82745339  0.08014388  0.03752113    -0.51700
C57         C  0.80081022  0.04849783  0.09660498     0.70300
O58         O  0.83782789  0.04696329  0.09602271    -0.46600
C59         C  0.82343289  0.16426957  0.07369964     0.75000
O60         O  0.90269628  0.08579336  0.08638861    -0.58400
O61         O  0.81249938  0.14274022  0.05928868    -0.48500
O62         O  0.90241469  0.10099557  0.05549146    -0.54900
C63         C  0.83731268  0.04418379  0.03684190     0.85200
O64         O  0.78585690  0.07157154  0.08372212    -0.56800
O65         O  0.84363456  0.14606201  0.08672466    -0.60100
In66       In  0.17260236  0.10240448  0.07075849     1.36900
C67         C  0.09414127  0.10164565  0.07347524     0.77600
O68         O  0.17718069  0.16018923  0.08719092    -0.60800
O69         O  0.18600433  0.16002027  0.05566438    -0.51700
C70         C  0.21849546  0.06562067  0.09739206     0.70300
O71         O  0.18148490  0.06682056  0.09865457    -0.46600
C72         C  0.18345313  0.05698218  0.03833072     0.75000
O73         O  0.11618491  0.09325256  0.08818616    -0.58400
O74         O  0.20391435  0.08710522  0.04151154    -0.48500
O75         O  0.11271597  0.11137685  0.05770178    -0.54900
C76         C  0.18347015  0.18037585  0.07158396     0.85200
O77         O  0.23234879  0.08437139  0.08258292    -0.56800
O78         O  0.15930429  0.04936915  0.05228253    -0.60100
In79       In  0.84604192  0.91431863  0.92718977     1.36900
C80         C  0.92432487  0.91382585  0.92435827     0.77600
O81         O  0.85704107  0.96936484  0.94493941    -0.60800
O82         O  0.82574162  0.92368509  0.95933466    -0.51700
C83         C  0.79722261  0.94960287  0.90117896     0.70300
O84         O  0.83070281  0.93654115  0.89615011    -0.46600
C85         C  0.82893550  0.83775781  0.92491982     0.75000
O86         O  0.90260195  0.93469297  0.91311601    -0.58400
O87         O  0.82182619  0.85863872  0.94034709    -0.48500
O88         O  0.90556493  0.89301521  0.93674079    -0.54900
C89         C  0.84020331  0.95767121  0.96083557     0.85200
O90         O  0.78838850  0.94370466  0.91946663    -0.56800
O91         O  0.84325945  0.85684037  0.91038785    -0.60100
In92       In  0.17109625  0.93293851  0.92805640     1.36900
C93         C  0.09384037  0.92891540  0.92421352     0.77600
O94         O  0.17058584  0.87755220  0.90960991    -0.60800
O95         O  0.19139669  0.87424803  0.93966160    -0.51700
C96         C  0.21719659  0.97166369  0.90243549     0.70300
O97         O  0.18068846  0.97787935  0.90403912    -0.46600
C98         C  0.17772339  0.97162468  0.96283466     0.75000
O99         O  0.11524009  0.94534090  0.91110506    -0.58400
O100        O  0.20079737  0.94377610  0.95800326    -0.48500
O101        O  0.11235430  0.91485913  0.93911592    -0.54900
C102        C  0.18297949  0.85580923  0.92373265     0.85200
O103        O  0.23020960  0.94536084  0.91410874    -0.56800
O104        O  0.15288586  0.98064052  0.94954647    -0.60100
In105      In  0.34197203  0.92287793  0.18075215     1.36900
C106        C  0.34513805  0.84425407  0.17906235     0.77600
O107        O  0.40075135  0.92285285  0.16481276    -0.60800
O108        O  0.39755846  0.94370280  0.19484969    -0.51700
C109        C  0.30648262  0.96805517  0.15328746     0.70300
O110        O  0.30324298  0.93124698  0.15395724    -0.46600
C111        C  0.29711671  0.93611232  0.21348950     0.75000
O112        O  0.33467160  0.86545000  0.16432349    -0.58400
O113        O  0.33043438  0.95125309  0.21095758    -0.48500
O114        O  0.35421786  0.86376440  0.19451945    -0.54900
C115        C  0.41927892  0.93578295  0.17988671     0.85200
O116        O  0.32968207  0.98198404  0.16621160    -0.56800
O117        O  0.28590771  0.91559850  0.19873731    -0.60100
In118      In  0.34005432  0.59463947  0.17401363     1.36900
C119        C  0.34384505  0.67320560  0.17292018     0.77600
O120        O  0.28772581  0.61113075  0.19325054    -0.60800
O121        O  0.32706046  0.56749880  0.20421691    -0.51700
C122        C  0.30119554  0.55145132  0.14690364     0.70300
O123        O  0.31738158  0.58350008  0.14239689    -0.46600
C124        C  0.41595173  0.57231954  0.17343755     0.75000
O125        O  0.32306417  0.65355155  0.16092364    -0.58400
O126        O  0.39375593  0.56861149  0.18857032    -0.48500
O127        O  0.36329039  0.65226967  0.18513523    -0.54900
C128        C  0.29656869  0.58807300  0.20753565     0.85200
O129        O  0.30665902  0.54090100  0.16491933    -0.56800
O130        O  0.39843003  0.58554340  0.15804275    -0.60100
In131      In  0.16401414  0.92666296  0.32167528     1.36900
C132        C  0.16781811  0.84811501  0.32217504     0.77600
O133        O  0.10814444  0.92232754  0.33974001    -0.60800
O134        O  0.10626672  0.95274406  0.31186631    -0.51700
C135        C  0.19671627  0.97454675  0.34870132     0.70300
O136        O  0.19164385  0.93839402  0.35187337    -0.46600
C137        C  0.20270590  0.93719791  0.28683460     0.75000
O138        O  0.19097864  0.86924224  0.33218537    -0.58400
O139        O  0.16642723  0.94445224  0.28882933    -0.48500
O140        O  0.14286888  0.86739515  0.31207515    -0.54900
C141        C  0.08714265  0.93996304  0.32682668     0.85200
O142        O  0.18435440  0.98641149  0.33178452    -0.56800
O143        O  0.21905963  0.92574530  0.30290955    -0.60100
In144      In  0.16770246  0.59846295  0.31699950     1.36900
C145        C  0.16580997  0.67722186  0.31931531     0.77600
O146        O  0.22204578  0.59835128  0.29786250    -0.60800
O147        O  0.16753184  0.58942472  0.28329031    -0.51700
C148        C  0.20611208  0.55375849  0.34393834     0.70300
O149        O  0.19211128  0.58736992  0.34804550    -0.46600
C150        C  0.09360946  0.57475921  0.32007225     0.75000
O151        O  0.19278567  0.65653137  0.32713774    -0.58400
O152        O  0.11711507  0.56185370  0.30675543    -0.48500
O153        O  0.14018454  0.65734420  0.31040227    -0.54900
C154        C  0.20427352  0.59256866  0.28144955     0.85200
O155        O  0.19933197  0.54268361  0.32608162    -0.56800
O156        O  0.10926704  0.59707298  0.33294587    -0.60100
In157      In  0.66036778  0.59113253  0.17999799     1.36900
C158        C  0.65834501  0.66982110  0.17864010     0.77600
O159        O  0.60398290  0.59314298  0.16233346    -0.60800
O160        O  0.60614651  0.55777384  0.18859322    -0.51700
C161        C  0.70015658  0.54715337  0.15328960     0.70300
O162        O  0.69819367  0.58414694  0.15254077    -0.46600
C163        C  0.70042629  0.58138854  0.21434090     0.75000
O164        O  0.67406848  0.64885252  0.16504113    -0.58400
O165        O  0.66344003  0.57967512  0.21355482    -0.48500
O166        O  0.64349915  0.65024553  0.19290189    -0.54900
C167        C  0.58558336  0.57095802  0.17423052     0.85200
O168        O  0.68073014  0.53236184  0.16769128    -0.56800
O169        O  0.71672998  0.58712383  0.19743929    -0.60100
In170      In  0.66671096  0.91925712  0.18163881     1.36900
C171        C  0.66132861  0.84093549  0.18129367     0.77600
O172        O  0.72093842  0.91159504  0.20040873    -0.60800
O173        O  0.67428037  0.94659124  0.21229100    -0.51700
C174        C  0.70526035  0.96239609  0.15433560     0.70300
O175        O  0.71214693  0.92635575  0.15734450    -0.46600
C176        C  0.58996421  0.93415493  0.17850022     0.75000
O177        O  0.67155201  0.86050956  0.16593414    -0.58400
O178        O  0.61009763  0.94512495  0.19344639    -0.48500
O179        O  0.65379693  0.86190829  0.19655984    -0.54900
C180        C  0.70787942  0.93153541  0.21512825     0.85200
O181        O  0.67811275  0.97648594  0.16531746    -0.56800
O182        O  0.60981552  0.91722365  0.16479986    -0.60100
In183      In  0.84119511  0.91545254  0.32147359     1.36900
C184        C  0.84247880  0.83723223  0.32019796     0.77600
O185        O  0.78611994  0.91082047  0.30323181    -0.60800
O186        O  0.83475923  0.94088688  0.29056439    -0.51700
C187        C  0.80342064  0.96187419  0.34761518     0.70300
O188        O  0.80859588  0.92553389  0.35055602    -0.46600
C189        C  0.91726518  0.93008736  0.32728237     0.75000
O190        O  0.82575402  0.85626428  0.33429095    -0.58400
O191        O  0.89962696  0.93842537  0.31108016    -0.48500
O192        O  0.85868224  0.85829343  0.30698271    -0.54900
C193        C  0.80014373  0.92878910  0.28816142     0.85200
O194        O  0.81790264  0.97449471  0.33129918    -0.56800
O195        O  0.89531056  0.91607238  0.34080618    -0.60100
In196      In  0.84656256  0.58896543  0.31724641     1.36900
C197        C  0.84732105  0.66709787  0.31967673     0.77600
O198        O  0.90200002  0.58204547  0.33508963    -0.60800
O199        O  0.90527746  0.57284855  0.30359844    -0.51700
C200        C  0.81389426  0.54145388  0.34406883     0.70300
O201        O  0.81476841  0.57830146  0.34631282    -0.46600
C202        C  0.79994214  0.57762255  0.28540546     0.75000
O203        O  0.83479443  0.64557849  0.33376142    -0.58400
O204        O  0.83363768  0.56194497  0.28695141    -0.48500
O205        O  0.85950223  0.64843359  0.30431896    -0.54900
C206        C  0.92367007  0.57414257  0.32012700     0.85200
O207        O  0.83007752  0.52889849  0.32806956    -0.56800
O208        O  0.78985162  0.59789146  0.30063094    -0.60100
In209      In  0.66833906  0.59991678  0.56998003     1.36900
C210        C  0.59026235  0.60391520  0.57216835     0.77600
O211        O  0.67649355  0.65538774  0.58743242    -0.60800
O212        O  0.68706505  0.65644021  0.55589693    -0.51700
C213        C  0.71546916  0.56594827  0.59689252     0.70300
O214        O  0.68023308  0.57532150  0.60073925    -0.46600
C215        C  0.67443736  0.55617257  0.53696677     0.75000
O216        O  0.61042360  0.57953884  0.58234093    -0.58400
O217        O  0.69650380  0.58520736  0.54001306    -0.48500
O218        O  0.61057271  0.62649622  0.56134515    -0.54900
C219        C  0.68545149  0.67574951  0.57223131     0.85200
O220        O  0.72643482  0.57395171  0.57912838    -0.56800
O221        O  0.65081668  0.54874320  0.55114120    -0.60100
In222      In  0.34266202  0.59590340  0.56713334     1.36900
C223        C  0.42020638  0.59793605  0.57092238     0.77600
O224        O  0.34546234  0.54085374  0.54862311    -0.60800
O225        O  0.33076544  0.59389994  0.53363715    -0.51700
C226        C  0.29735346  0.55502622  0.59201109     0.70300
O227        O  0.33420430  0.55123029  0.59139929    -0.46600
C228        C  0.32344152  0.67153341  0.57287764     0.75000
O229        O  0.39800052  0.58520657  0.58470508    -0.58400
O230        O  0.30927686  0.65108238  0.55876617    -0.48500
O231        O  0.40251545  0.61022332  0.55539062    -0.54900
C232        C  0.33768586  0.55749808  0.53208516     0.85200
O233        O  0.28345292  0.58067826  0.58015728    -0.56800
O234        O  0.34608476  0.65248184  0.58439532    -0.60100
In235      In  0.67744618  0.42180464  0.42987792     1.36900
C236        C  0.60000536  0.41815436  0.42420537     0.77600
O237        O  0.68950159  0.36548158  0.41311422    -0.60800
O238        O  0.69230630  0.36480501  0.44500585    -0.51700
C239        C  0.72674327  0.45593149  0.40410293     0.70300
O240        O  0.69152231  0.44839384  0.39979465    -0.46600
C241        C  0.68184624  0.46509399  0.46331523     0.75000
O242        O  0.62157531  0.44195173  0.41468326    -0.58400
O243        O  0.70378756  0.43556073  0.46012329    -0.48500
O244        O  0.61827165  0.39686004  0.43668639    -0.54900
C245        C  0.69434055  0.34511279  0.42888211     0.85200
O246        O  0.73691446  0.44552008  0.42160932    -0.56800
O247        O  0.65840933  0.47286899  0.44910038    -0.60100
In248      In  0.35129038  0.42282701  0.42438441     1.36900
C249        C  0.42973941  0.42058112  0.42017771     0.77600
O250        O  0.36491624  0.47575321  0.44352503    -0.60800
O251        O  0.32751239  0.43235866  0.45566606    -0.51700
C252        C  0.30390990  0.45973514  0.39799857     0.70300
O253        O  0.33642042  0.44420176  0.39311172    -0.46600
C254        C  0.33057206  0.34703432  0.42409442     0.75000
O255        O  0.40787820  0.44398817  0.41050253    -0.58400
O256        O  0.33057460  0.36804618  0.43981591    -0.48500
O257        O  0.41115681  0.39762992  0.43162847    -0.54900
C258        C  0.34480154  0.46446766  0.45850780     0.85200
O259        O  0.29527758  0.45558683  0.41644507    -0.56800
O260        O  0.33962599  0.36551810  0.40824712    -0.60100
In261      In  0.66545629  0.92078842  0.56893591     1.36900
C262        C  0.58725793  0.91345591  0.57126726     0.77600
O263        O  0.68980740  0.92629524  0.53739420    -0.60800
O264        O  0.65896219  0.97495743  0.55015034    -0.51700
C265        C  0.70857909  0.96216749  0.59493971     0.70300
O266        O  0.67295507  0.96952994  0.59132221    -0.46600
C267        C  0.68504378  0.84532166  0.57061808     0.75000
O268        O  0.60815435  0.92180499  0.58638284    -0.58400
O269        O  0.69555976  0.86747530  0.55636420    -0.48500
O270        O  0.60665861  0.90861948  0.55516452    -0.54900
C271        C  0.67682226  0.96084710  0.53497878     0.85200
O272        O  0.72193672  0.93228729  0.58575475    -0.56800
O273        O  0.66654624  0.86270643  0.58472994    -0.60100
In274      In  0.33751018  0.91778246  0.56974921     1.36900
C275        C  0.41600673  0.91528347  0.57367686     0.77600
O276        O  0.33422516  0.86047423  0.58679529    -0.60800
O277        O  0.30926361  0.86315317  0.55772344    -0.51700
C278        C  0.28735058  0.95580719  0.59448562     0.70300
O279        O  0.32041755  0.94281319  0.60012671    -0.46600
C280        C  0.33580440  0.95828302  0.53512671     0.75000
O281        O  0.39420424  0.93797340  0.58402037    -0.58400
O282        O  0.32381696  0.92336431  0.53646752    -0.48500
O283        O  0.39717082  0.89375998  0.56166689    -0.54900
C284        C  0.31776677  0.84186990  0.57270274     0.85200
O285        O  0.27939171  0.94837829  0.57629791    -0.56800
O286        O  0.34808176  0.97229479  0.55159675    -0.60100
In287      In  0.66837621  0.09903834  0.42940860     1.36900
C288        C  0.58982486  0.10172772  0.42841520     0.77600
O289        O  0.65644770  0.04573599  0.44830916    -0.60800
O290        O  0.69611911  0.08790716  0.45974002    -0.51700
C291        C  0.71252535  0.06170808  0.40178189     0.70300
O292        O  0.67864960  0.07516500  0.39807076    -0.46600
C293        C  0.68778228  0.17502826  0.42645937     0.75000
O294        O  0.61019081  0.07961316  0.41701276    -0.58400
O295        O  0.69065574  0.15550948  0.44261918    -0.48500
O296        O  0.60994678  0.12223439  0.44030378    -0.54900
C297        C  0.67831506  0.05601936  0.46269919     0.85200
O298        O  0.72410540  0.06843979  0.41953917    -0.56800
O299        O  0.67627769  0.15491298  0.41167451    -0.60100
In300      In  0.34066187  0.09996812  0.42967806     1.36900
C301        C  0.41901298  0.09955728  0.42714447     0.77600
O302        O  0.33972876  0.15840466  0.41359640    -0.60800
O303        O  0.31565390  0.15575404  0.44311133    -0.51700
C304        C  0.29129258  0.06676411  0.40334480     0.70300
O305        O  0.32570713  0.07705661  0.39882024    -0.46600
C306        C  0.33616637  0.05610932  0.46301357     0.75000
O307        O  0.39767800  0.08036911  0.41518305    -0.58400
O308        O  0.32113405  0.09013643  0.46169057    -0.48500
O309        O  0.39996912  0.11936198  0.44011952    -0.54900
C310        C  0.32486256  0.17711740  0.42829836     0.85200
O311        O  0.28187355  0.07390301  0.42147403    -0.56800
O312        O  0.35237223  0.04405419  0.44688481    -0.60100
In313      In  0.16558001  0.42351204  0.67578166     1.36900
C314        C  0.16464098  0.34470390  0.67562302     0.77600
O315        O  0.22269998  0.42214620  0.69233025    -0.60800
O316        O  0.17201910  0.44155262  0.70821895    -0.51700
C317        C  0.20197809  0.46724025  0.64823396     0.70300
O318        O  0.19704821  0.43073826  0.64617417    -0.46600
C319        C  0.08978437  0.44378474  0.67241625     0.75000
O320        O  0.18117607  0.36478027  0.66209791    -0.58400
O321        O  0.11162900  0.45669691  0.68615266    -0.48500
O322        O  0.14846259  0.36537705  0.68926649    -0.54900
C323        C  0.20855602  0.43459686  0.70880440     0.85200
O324        O  0.18733116  0.48138076  0.66424422    -0.56800
O325        O  0.10765581  0.42218161  0.65974004    -0.60100
In326      In  0.16224785  0.09453242  0.68029641     1.36900
C327        C  0.16127182  0.17329530  0.67967614     0.77600
O328        O  0.10400007  0.09733684  0.66440062    -0.60800
O329        O  0.10730910  0.06557267  0.69181357    -0.51700
C330        C  0.19577125  0.04613782  0.65297463     0.70300
O331        O  0.18717357  0.08166254  0.64930417    -0.46600
C332        C  0.20737096  0.08635693  0.71299149     0.75000
O333        O  0.18142572  0.15260268  0.66745052    -0.58400
O334        O  0.17163945  0.07646826  0.71269857    -0.48500
O335        O  0.14149091  0.15330157  0.69202641    -0.54900
C336        C  0.08568677  0.07823484  0.67774253     0.85200
O337        O  0.18610499  0.03546722  0.67052490    -0.56800
O338        O  0.21976278  0.09989388  0.69644023    -0.60100
In339      In  0.34430063  0.10867365  0.81841929     1.36900
C340        C  0.34723465  0.18760577  0.81813637     0.77600
O341        O  0.39983087  0.10251668  0.83654238    -0.60800
O342        O  0.40073568  0.08410125  0.80605110    -0.51700
C343        C  0.30719864  0.06577622  0.84608966     0.70300
O344        O  0.30691626  0.10283125  0.84594469    -0.46600
C345        C  0.29904011  0.09366234  0.78650055     0.75000
O346        O  0.33323347  0.16819363  0.83267591    -0.58400
O347        O  0.33484149  0.08354489  0.78730188    -0.48500
O348        O  0.36044884  0.16649341  0.80392088    -0.54900
C349        C  0.41996258  0.08832389  0.82210960     0.85200
O350        O  0.32821875  0.05027358  0.83235548    -0.56800
O351        O  0.28666517  0.11091557  0.80217578    -0.60100
In352      In  0.33920502  0.43754835  0.81702213     1.36900
C353        C  0.33951031  0.35884380  0.81783479     0.77600
O354        O  0.28178190  0.43392656  0.80072041    -0.60800
O355        O  0.33145896  0.45358584  0.78432461    -0.51700
C356        C  0.30540564  0.48617191  0.84388860     0.70300
O357        O  0.31126859  0.45003556  0.84706338    -0.46600
C358        C  0.41574166  0.45187062  0.82121339     0.75000
O359        O  0.32054596  0.37986427  0.83035440    -0.58400
O360        O  0.39557420  0.46553364  0.80676930    -0.48500
O361        O  0.35847567  0.37841964  0.80492055    -0.54900
C362        C  0.29537768  0.44498249  0.78393172     0.85200
O363        O  0.31749683  0.49777297  0.82684363    -0.56800
O364        O  0.39599776  0.43273363  0.83391583    -0.60100
In365      In  0.83865159  0.09743311  0.67858162     1.36900
C366        C  0.84044459  0.17591229  0.67697638     0.77600
O367        O  0.78195917  0.09761540  0.69638524    -0.60800
O368        O  0.83332186  0.07753772  0.71097903    -0.51700
C369        C  0.80225527  0.05270563  0.65130925     0.70300
O370        O  0.79558332  0.08904399  0.65349883    -0.46600
C371        C  0.91538667  0.08119508  0.67467674     0.75000
O372        O  0.83153581  0.15472717  0.66207915    -0.58400
O373        O  0.89438444  0.06801031  0.68888877    -0.48500
O374        O  0.84847707  0.15668316  0.69276643    -0.54900
C375        C  0.79699328  0.08484614  0.71254546     0.85200
O376        O  0.82807059  0.03937145  0.66316019    -0.56800
O377        O  0.89652904  0.10150189  0.66197984    -0.60100
In378      In  0.84375512  0.42474425  0.67774874     1.36900
C379        C  0.84173999  0.34646094  0.67780518     0.77600
O380        O  0.90022079  0.42088320  0.66038656    -0.60800
O381        O  0.89988156  0.45397210  0.68737424    -0.51700
C382        C  0.80976781  0.47272417  0.65139240     0.70300
O383        O  0.81509551  0.43651440  0.64799967    -0.46600
C384        C  0.79981533  0.43456576  0.71079608     0.75000
O385        O  0.82700070  0.36683960  0.66372868    -0.58400
O386        O  0.83671906  0.43836465  0.71074008    -0.48500
O387        O  0.85800368  0.36623524  0.69145847    -0.54900
C388        C  0.91986590  0.44105670  0.67258138     0.85200
O389        O  0.82219720  0.48448508  0.66828411    -0.56800
O390        O  0.78559159  0.42690943  0.69364363    -0.60100
In391      In  0.66138890  0.42275167  0.81689874     1.36900
C392        C  0.66115221  0.34427280  0.81923982     0.77600
O393        O  0.60309649  0.42439752  0.83308382    -0.60800
O394        O  0.60819805  0.45422405  0.80516351    -0.51700
C395        C  0.69537192  0.46933692  0.84390788     0.70300
O396        O  0.68595440  0.43433146  0.84775315    -0.46600
C397        C  0.70209225  0.43021154  0.78268814     0.75000
O398        O  0.68545886  0.36517676  0.82864293    -0.58400
O399        O  0.66554233  0.43642922  0.78379102    -0.48500
O400        O  0.63740297  0.36376637  0.80856476    -0.54900
C401        C  0.58584915  0.44375906  0.81937349     0.85200
O402        O  0.68580723  0.48084717  0.82649250    -0.56800
O403        O  0.71790516  0.42073537  0.79922074    -0.60100
In404      In  0.66635391  0.09518683  0.82176138     1.36900
C405        C  0.66738533  0.17374179  0.82276097     0.77600
O406        O  0.72113122  0.09811729  0.80258004    -0.60800
O407        O  0.66933021  0.07628243  0.78914832    -0.51700
C408        C  0.70215676  0.04742929  0.84822363     0.70300
O409        O  0.69517510  0.08331348  0.85162139    -0.46600
C410        C  0.58972497  0.08019934  0.82668159     0.75000
O411        O  0.68900669  0.15271989  0.83392460    -0.58400
O412        O  0.60962625  0.06912618  0.81150352    -0.48500
O413        O  0.64530578  0.15438663  0.81128600    -0.54900
C414        C  0.70495068  0.08521612  0.78680481     0.85200
O415        O  0.69011384  0.03575639  0.83124185    -0.56800
O416        O  0.60989656  0.09713571  0.83997621    -0.60100
C417        C  0.69697075  0.28175102  0.82572271    -0.05700
C418        C  0.66137752  0.30058918  0.82046653     0.00200
C419        C  0.62756978  0.27745649  0.81672591    -0.08400
C420        C  0.63110657  0.23625352  0.81805295    -0.05800
C421        C  0.66680003  0.21742792  0.82298766     0.00200
C422        C  0.70047080  0.24046733  0.82696052    -0.08300
C423        C  0.74023213  0.22185807  0.83180331     0.62100
H424        H  0.72246322  0.29976139  0.82857070     0.12800
H425        H  0.60569906  0.21815159  0.81514132     0.12800
C426        C  0.58766558  0.29565152  0.81166010     0.62300
F427        F  0.76965900  0.24964606  0.83305835    -0.22800
F428        F  0.75081182  0.19528539  0.81677557    -0.20200
F429        F  0.73825332  0.20263350  0.85021504    -0.19800
F430        F  0.58942170  0.31388232  0.79297438    -0.19900
F431        F  0.57692158  0.32287695  0.82634663    -0.20200
F432        F  0.55835487  0.26767553  0.81078378    -0.22900
C433        C  0.73648549  0.42181418  0.72799809    -0.05700
C434        C  0.77484466  0.43683758  0.72933807     0.00200
C435        C  0.78803654  0.45201516  0.74816339    -0.08400
C436        C  0.76279379  0.44983666  0.76506530    -0.05800
C437        C  0.72503573  0.43381346  0.76374295     0.00200
C438        C  0.71121129  0.41999003  0.74487026    -0.08300
C439        C  0.67073845  0.40180804  0.74262637     0.62100
H440        H  0.72656544  0.41051942  0.71359434     0.12800
H441        H  0.77252361  0.46043675  0.77965908     0.12800
C442        C  0.82824524  0.47055335  0.75067792     0.62300
F443        F  0.66477762  0.38722118  0.72330991    -0.22800
F444        F  0.64181594  0.42991107  0.74641645    -0.20200
F445        F  0.66674609  0.37092680  0.75610650    -0.19800
F446        F  0.83320914  0.49998124  0.73645015    -0.19900
F447        F  0.85745477  0.44214559  0.74835575    -0.20200
F448        F  0.83261147  0.48736864  0.76963593    -0.22900
C449        C  0.73335839  0.09091611  0.73099267    -0.05700
C450        C  0.77362796  0.08054450  0.73166144     0.00200
C451        C  0.79010588  0.06847007  0.75048212    -0.08400
C452        C  0.76609295  0.06950934  0.76794133    -0.05800
C453        C  0.72643079  0.08134206  0.76728196     0.00200
C454        C  0.70936424  0.09153594  0.74844263    -0.08300
C455        C  0.66653749  0.10469780  0.74678260     0.62100
H456        H  0.72075604  0.09946795  0.71661887     0.12800
H457        H  0.77832848  0.06149717  0.78249458     0.12800
C458        C  0.83276734  0.05505399  0.75252770     0.62300
F459        F  0.65699413  0.11634743  0.72731450    -0.22800
F460        F  0.65935893  0.13631639  0.75957163    -0.20200
F461        F  0.64214047  0.07395566  0.75198782    -0.19800
F462        F  0.85754395  0.08589761  0.74799722    -0.19900
F463        F  0.84031713  0.02377538  0.73957698    -0.20200
F464        F  0.84136053  0.04254673  0.77197672    -0.22900
C465        C  0.84615213  0.28306796  0.65957963    -0.05700
C466        C  0.84070268  0.30292883  0.67802270     0.00200
C467        C  0.83461952  0.28104520  0.69601224    -0.08400
C468        C  0.83470540  0.23969804  0.69483105    -0.05800
C469        C  0.84064407  0.21964815  0.67642320     0.00200
C470        C  0.84692169  0.24166103  0.65842857    -0.08300
C471        C  0.85608640  0.22196461  0.63824283     0.62100
H472        H  0.85075354  0.30044067  0.64604809     0.12800
H473        H  0.83001330  0.22257857  0.70843452     0.12800
C474        C  0.82710132  0.30101275  0.71631585     0.62300
F475        F  0.86565740  0.24908798  0.62342575    -0.22800
F476        F  0.82367587  0.20142470  0.63161278    -0.20200
F477        F  0.88785785  0.19641509  0.64036316    -0.19800
F478        F  0.79696007  0.32857799  0.71454415    -0.19900
F479        F  0.86093752  0.31941799  0.72273713    -0.20200
F480        F  0.81625071  0.27432549  0.73110723    -0.22900
C481        C  0.47912808  0.46216422  0.80372368    -0.05700
C482        C  0.45932620  0.45530710  0.82207305     0.00200
C483        C  0.48165178  0.44900842  0.83993795    -0.08400
C484        C  0.52299215  0.44745992  0.83839204    -0.05800
C485        C  0.54269513  0.45171704  0.81978089     0.00200
C486        C  0.52040562  0.45999492  0.80208851    -0.08300
C487        C  0.53937399  0.46453667  0.78130671     0.62100
H488        H  0.46174153  0.46730180  0.79027494     0.12800
H489        H  0.54033910  0.44157775  0.85178447     0.12800
C490        C  0.46246696  0.44384710  0.86059631     0.62300
F491        F  0.51174737  0.47093607  0.76628245    -0.22800
F492        F  0.56025496  0.43059879  0.77632881    -0.20200
F493        F  0.56437103  0.49640996  0.78134814    -0.19800
F494        F  0.44351129  0.40806039  0.86147356    -0.19900
F495        F  0.43565313  0.47412914  0.86408553    -0.20200
F496        F  0.48985231  0.44449448  0.87605837    -0.22900
C497        C  0.52737003  0.06281884  0.80995051    -0.05700
C498        C  0.54605881  0.07598451  0.82761379     0.00200
C499        C  0.52243266  0.08707518  0.84456335    -0.08400
C500        C  0.48125896  0.08884960  0.84224308    -0.05800
C501        C  0.46287443  0.07940801  0.82387250     0.00200
C502        C  0.48622037  0.06389152  0.80773928    -0.08300
C503        C  0.46855763  0.04910219  0.78805739     0.62100
H504        H  0.54548025  0.05312352  0.79731724     0.12800
H505        H  0.46311736  0.09920096  0.85472494     0.12800
C506        C  0.53990552  0.09730237  0.86501110     0.62300
F507        F  0.49655093  0.03116514  0.77569143    -0.22800
F508        F  0.45225691  0.08026588  0.77740269    -0.20200
F509        F  0.43996192  0.02149595  0.79219191    -0.19800
F510        F  0.56000648  0.13239353  0.86374600    -0.19900
F511        F  0.56526528  0.06746718  0.87111530    -0.20200
F512        F  0.51113427  0.10164489  0.87982866    -0.22900
C513        C  0.37235145  0.29561386  0.80863712    -0.05700
C514        C  0.34044968  0.31494010  0.81822825     0.00200
C515        C  0.31052447  0.29201764  0.82739973    -0.08400
C516        C  0.31462125  0.25067983  0.82729226    -0.05800
C517        C  0.34645244  0.23142228  0.81769307     0.00200
C518        C  0.37580564  0.25421900  0.80801470    -0.08300
C519        C  0.41089826  0.23526943  0.79726190     0.62100
H520        H  0.39477305  0.31334383  0.80149444     0.12800
H521        H  0.29227166  0.23282742  0.83442340     0.12800
C522        C  0.27361334  0.31061953  0.83660200     0.62300
F523        F  0.43823270  0.26287759  0.79119551    -0.22800
F524        F  0.39825584  0.21564828  0.78017232    -0.20200
F525        F  0.42970129  0.20895940  0.81006319    -0.19800
F526        F  0.25577566  0.33521943  0.82259427    -0.19900
F527        F  0.28324531  0.33193002  0.85368940    -0.20200
F528        F  0.24637074  0.28262387  0.84226615    -0.22900
C529        C  0.97748830  0.06844138  0.69272484    -0.05700
C530        C  0.95887957  0.07551442  0.67413513     0.00200
C531        C  0.98225845  0.07917666  0.65636273    -0.08400
C532        C  0.02358690  0.07754478  0.65818746    -0.05800
C533        C  0.04222045  0.07306250  0.67703467     0.00200
C534        C  0.01869407  0.06786634  0.69466376    -0.08300
C535        C  0.03637784  0.06393717  0.71567504     0.62100
H536        H  0.95926975  0.06532304  0.70611172     0.12800
H537        H  0.04182793  0.08126798  0.64484431     0.12800
C538        C  0.96416952  0.08521550  0.63558110     0.62300
F539        F  0.00773534  0.06205069  0.73064058    -0.22800
F540        F  0.05949266  0.09623870  0.71979361    -0.20200
F541        F  0.05892570  0.02982563  0.71674864    -0.19800
F542        F  0.94749935  0.12249489  0.63438569    -0.19900
F543        F  0.93561966  0.05725474  0.63218954    -0.20200
F544        F  0.99200276  0.08172495  0.62025582    -0.22900
C545        C  0.29414594  0.08345215  0.74957257    -0.05700
C546        C  0.27452502  0.08754549  0.76823464     0.00200
C547        C  0.23271358  0.08698666  0.76874538    -0.08400
C548        C  0.21220128  0.08523882  0.75031895    -0.05800
C549        C  0.23184491  0.08397338  0.73155535     0.00200
C550        C  0.27365384  0.08159163  0.73115339    -0.08300
C551        C  0.29691663  0.07681157  0.71156347     0.62100
H552        H  0.32604311  0.08319979  0.74942585     0.12800
H553        H  0.18031179  0.08634473  0.75044261     0.12800
C554        C  0.20951554  0.08807664  0.78849170     0.62300
F555        F  0.33635772  0.06868300  0.71510230    -0.22800
F556        F  0.29464522  0.11112991  0.70036545    -0.20200
F557        F  0.28203982  0.04590291  0.70043099    -0.19800
F558        F  0.21253147  0.12481107  0.79737600    -0.19900
F559        F  0.22387569  0.05953228  0.80154502    -0.20200
F560        F  0.16991649  0.08085872  0.78549353    -0.22900
C561        C  0.02685676  0.43678903  0.65437877    -0.05700
C562        C  0.04644489  0.45075564  0.67157075     0.00200
C563        C  0.02386103  0.46691589  0.68783451    -0.08400
C564        C  0.98250865  0.46498199  0.68688218    -0.05800
C565        C  0.96305650  0.44741299  0.67050482     0.00200
C566        C  0.98561537  0.43454988  0.65347812    -0.08300
C567        C  0.96705423  0.41739634  0.63455400     0.62100
H568        H  0.04436242  0.42567113  0.64183008     0.12800
H569        H  0.96501640  0.47567001  0.69953051     0.12800
C570        C  0.04269248  0.48497798  0.70646241     0.62300
F571        F  0.99447261  0.41104532  0.61926109    -0.22800
F572        F  0.93874491  0.44315833  0.62717309    -0.20200
F573        F  0.95020193  0.38152699  0.63902640    -0.19800
F574        F  0.06726624  0.51523047  0.70068775    -0.19900
F575        F  0.06400335  0.45655298  0.71682514    -0.20200
F576        F  0.01490925  0.50060005  0.71973523    -0.22900
C577        C  0.29296730  0.44162993  0.74667539    -0.05700
C578        C  0.27203408  0.44555203  0.76497195     0.00200
C579        C  0.23025559  0.44812876  0.76455382    -0.08400
C580        C  0.21117404  0.44547017  0.74576889    -0.05800
C581        C  0.23204257  0.43971230  0.72754341     0.00200
C582        C  0.27389619  0.43833177  0.72791971    -0.08300
C583        C  0.29877186  0.43317481  0.70885178     0.62100
H584        H  0.32479402  0.43973051  0.74724626     0.12800
H585        H  0.17932081  0.44674859  0.74529518     0.12800
C586        C  0.20553482  0.45378060  0.78363131     0.62300
F587        F  0.33868301  0.43568669  0.71277763    -0.22800
F588        F  0.28931429  0.46233945  0.69502940    -0.20200
F589        F  0.29221609  0.39651048  0.70043891    -0.19800
F590        F  0.21864121  0.48611565  0.79431320    -0.19900
F591        F  0.20813383  0.42049470  0.79561255    -0.20200
F592        F  0.16609550  0.46013260  0.77928710    -0.22900
C593        C  0.14862406  0.28255460  0.69328597    -0.05700
C594        C  0.16413778  0.30072239  0.67591213     0.00200
C595        C  0.17818821  0.27660020  0.65972700    -0.08400
C596        C  0.17641956  0.23537588  0.66178848    -0.05800
C597        C  0.16101381  0.21724429  0.67917704     0.00200
C598        C  0.14669722  0.24133899  0.69530440    -0.08300
C599        C  0.12984806  0.22424111  0.71474400     0.62100
H600        H  0.13790031  0.30111004  0.70550307     0.12800
H601        H  0.18712007  0.21674340  0.64959366     0.12800
C602        C  0.19484749  0.29364043  0.64023806     0.62300
F603        F  0.12034023  0.25319773  0.72879044    -0.22800
F604        F  0.15719958  0.19917367  0.72356426    -0.20200
F605        F  0.09578579  0.20390284  0.71053601    -0.19800
F606        F  0.22864170  0.31446865  0.64438415    -0.19900
F607        F  0.16717995  0.31821082  0.63131489    -0.20200
F608        F  0.20471039  0.26461768  0.62629529    -0.22900
C609        C  0.52696406  0.06930558  0.42020008    -0.05700
C610        C  0.54604326  0.10257721  0.42796080     0.00200
C611        C  0.52304170  0.13518456  0.43487455    -0.08400
C612        C  0.48176937  0.13296439  0.43381744    -0.05800
C613        C  0.46271917  0.09951036  0.42634011     0.00200
C614        C  0.48562339  0.06686533  0.41948315    -0.08300
C615        C  0.46683190  0.02895617  0.41227649     0.62100
H616        H  0.54484334  0.04461538  0.41503968     0.12800
H617        H  0.46381755  0.15751725  0.43909460     0.12800
C618        C  0.54145952  0.17229780  0.44335584     0.62300
F619        F  0.49462609  0.99979040  0.40822638    -0.22800
F620        F  0.44601584  0.03584478  0.39467102    -0.20200
F621        F  0.44166321  0.01491656  0.42708075    -0.19800
F622        F  0.56906402  0.18674607  0.42987723    -0.19900
F623        F  0.55930201  0.16385125  0.46164780    -0.20200
F624        F  0.51371478  0.20183421  0.44673906    -0.22900
C625        C  0.22078059  0.03465581  0.61807369    -0.05700
C626        C  0.21625845  0.02009364  0.63789502     0.00200
C627        C  0.23268753  0.98244808  0.64269950    -0.08400
C628        C  0.25510070  0.96238092  0.62784548    -0.05800
C629        C  0.26047373  0.97763569  0.60835119     0.00200
C630        C  0.24228061  0.01393428  0.60310857    -0.08300
C631        C  0.24679051  0.03157412  0.58210313     0.62100
H632        H  0.20764665  0.06293070  0.61437648     0.12800
H633        H  0.26898152  0.93433936  0.63135900     0.12800
C634        C  0.22739578  0.96326732  0.66330514     0.62300
F635        F  0.22831842  0.06803703  0.58058474    -0.22800
F636        F  0.23014659  0.00697027  0.56790865    -0.20200
F637        F  0.28629760  0.03633063  0.57762674    -0.19800
F638        F  0.18770587  0.95880518  0.66742198    -0.19900
F639        F  0.24438487  0.98623304  0.67809925    -0.20200
F640        F  0.24489464  0.92625282  0.66415542    -0.22900
C641        C  0.33252203  0.02299124  0.51826836    -0.05700
C642        C  0.33510663  0.98188234  0.51616420     0.00200
C643        C  0.33826153  0.96527879  0.49646364    -0.08400
C644        C  0.33837283  0.99075741  0.47963484    -0.05800
C645        C  0.33512218  0.03188215  0.48175893     0.00200
C646        C  0.33242197  0.04843648  0.50148568    -0.08300
C647        C  0.33032947  0.09266168  0.50509334     0.62100
H648        H  0.33017279  0.03520288  0.53338350     0.12800
H649        H  0.34056325  0.97855980  0.46451157     0.12800
C650        C  0.34212597  0.92112740  0.49302286     0.62300
F651        F  0.33186969  0.10199199  0.52548838    -0.22800
F652        F  0.29531317  0.10771688  0.49760300    -0.20200
F653        F  0.36175847  0.11072279  0.49562902    -0.19800
F654        F  0.30751615  0.90298578  0.49866120    -0.19900
F655        F  0.37303211  0.90599244  0.50427569    -0.20200
F656        F  0.34944443  0.91204839  0.47288829    -0.22900
C657        C  0.76527841  0.96809687  0.61814922    -0.05700
C658        C  0.73281130  0.98630955  0.60877947     0.00200
C659        C  0.72487783  0.02681234  0.61254164    -0.08400
C660        C  0.74893302  0.04701804  0.62621267    -0.05800
C661        C  0.78043152  0.02849664  0.63632314     0.00200
C662        C  0.78922537  0.98826597  0.63200263    -0.08300
C663        C  0.82319330  0.96621301  0.64194884     0.62100
H664        H  0.77118999  0.93732411  0.61488333     0.12800
H665        H  0.74253532  0.07769674  0.62944341     0.12800
C666        C  0.69143647  0.04911301  0.60222475     0.62300
F667        F  0.82743600  0.92819135  0.63457511    -0.22800
F668        F  0.81654609  0.96372932  0.66258281    -0.20200
F669        F  0.85814835  0.98556601  0.63827818    -0.19800
F670        F  0.65567292  0.03576817  0.60941625    -0.19900
F671        F  0.69359858  0.04369993  0.58147791    -0.20200
F672        F  0.69289005  0.08923771  0.60589743    -0.22900
C673        C  0.67955505  0.99112108  0.47953648    -0.05700
C674        C  0.68204581  0.03225240  0.48140623     0.00200
C675        C  0.68509986  0.04938175  0.50092955    -0.08400
C676        C  0.68459860  0.02453549  0.51790930    -0.05800
C677        C  0.68142433  0.98355078  0.51605953     0.00200
C678        C  0.67951978  0.96621598  0.49655247    -0.08300
C679        C  0.67648815  0.92192841  0.49359938     0.62100
H680        H  0.67746869  0.97859053  0.46449907     0.12800
H681        H  0.68623372  0.03707771  0.53296380     0.12800
C682        C  0.68709911  0.09364831  0.50406298     0.62300
F683        F  0.67080787  0.91200826  0.47349413    -0.22800
F684        F  0.64501546  0.90749499  0.50459948    -0.20200
F685        F  0.71094023  0.90377970  0.49996182    -0.19800
F686        F  0.65516990  0.11187886  0.49493538    -0.19900
F687        F  0.72164861  0.10775598  0.49579248    -0.20200
F688        F  0.68643060  0.10374549  0.52438926    -0.22900
C689        C  0.47965289  0.89033358  0.56021396    -0.05700
C690        C  0.45996956  0.91399902  0.57465510     0.00200
C691        C  0.48271463  0.93575169  0.58873212    -0.08400
C692        C  0.52414104  0.93343470  0.58738725    -0.05800
C693        C  0.54356915  0.91122975  0.57232079     0.00200
C694        C  0.52094162  0.88873365  0.55860458    -0.08300
C695        C  0.53976226  0.86319647  0.54218052     0.62100
H696        H  0.46228140  0.87370930  0.54958306     0.12800
H697        H  0.54187934  0.95025071  0.59778542     0.12800
C698        C  0.46401613  0.96172099  0.60498705     0.62300
F699        F  0.51242712  0.83979375  0.53256172    -0.22800
F700        F  0.56802599  0.83849922  0.55051318    -0.20200
F701        F  0.55690418  0.88689466  0.52766590    -0.19800
F702        F  0.43957595  0.93947279  0.61714331    -0.19900
F703        F  0.44259109  0.99186953  0.59606011    -0.20200
F704        F  0.49191889  0.97878422  0.61733989    -0.22900
C705        C  0.32873389  0.28510135  0.44363698    -0.05700
C706        C  0.32344124  0.30384963  0.42485834     0.00200
C707        C  0.31390804  0.28072719  0.40766922    -0.08400
C708        C  0.31308819  0.23941457  0.40969900    -0.05800
C709        C  0.32060683  0.22068187  0.42824874     0.00200
C710        C  0.32772011  0.24390569  0.44569551    -0.08300
C711        C  0.33645920  0.22552106  0.46620590     0.62100
H712        H  0.33541875  0.30301365  0.45671579     0.12800
H713        H  0.30739800  0.22119327  0.39658777     0.12800
C714        C  0.30434823  0.29912391  0.38730127     0.62300
F715        F  0.34501866  0.25357817  0.48071411    -0.22800
F716        F  0.36863192  0.20027308  0.46461619    -0.20200
F717        F  0.30405505  0.20489698  0.47293869    -0.19800
F718        F  0.33792159  0.31506917  0.37886875    -0.19900
F719        F  0.27589796  0.32829349  0.38974946    -0.20200
F720        F  0.28991220  0.27167984  0.37379348    -0.22900
C721        C  0.70528011  0.23694179  0.44386415    -0.05700
C722        C  0.69533262  0.21821031  0.42561712     0.00200
C723        C  0.69067707  0.24148703  0.40787370    -0.08400
C724        C  0.69256838  0.28271359  0.40964275    -0.05800
C725        C  0.69915190  0.30150988  0.42826167     0.00200
C726        C  0.70743430  0.27815318  0.44558613    -0.08300
C727        C  0.71761686  0.29602202  0.46600049     0.62100
H728        H  0.70984220  0.21900278  0.45719990     0.12800
H729        H  0.68725144  0.30078017  0.39642662     0.12800
C730        C  0.68330229  0.22365424  0.38712537     0.62300
F731        F  0.73009413  0.26772087  0.47969544    -0.22800
F732        F  0.68477334  0.31473224  0.47416136    -0.20200
F733        F  0.74781197  0.32271337  0.46374089    -0.19800
F734        F  0.64700879  0.20560537  0.38687464    -0.19900
F735        F  0.71270133  0.19645072  0.38257909    -0.20200
F736        F  0.68330206  0.25182662  0.37197023    -0.22900
C737        C  0.49312298  0.38474931  0.42396393    -0.05700
C738        C  0.47348224  0.41996683  0.41879020     0.00200
C739        C  0.49598001  0.45358736  0.41367940    -0.08400
C740        C  0.53726601  0.45122646  0.41526889    -0.05800
C741        C  0.55669907  0.41661403  0.42147128     0.00200
C742        C  0.53444507  0.38216912  0.42509526    -0.08300
C743        C  0.55388330  0.34258171  0.42966657     0.62100
H744        H  0.47566746  0.35907162  0.42736370     0.12800
H745        H  0.55479103  0.47697867  0.41215327     0.12800
C746        C  0.47688666  0.49219745  0.40713372     0.62300
F747        F  0.52709691  0.31214838  0.42924504    -0.22800
F748        F  0.57053687  0.34322587  0.44871546    -0.20200
F749        F  0.58272775  0.33436422  0.41533392    -0.19800
F750        F  0.45145129  0.50574443  0.42209284    -0.19900
F751        F  0.45637543  0.48657220  0.38934535    -0.20200
F752        F  0.50441783  0.52119251  0.40360078    -0.22900
C753        C  0.24273160  0.55148277  0.61654729    -0.05700
C754        C  0.27250942  0.53169123  0.60570935     0.00200
C755        C  0.27764468  0.49048959  0.60799037    -0.08400
C756        C  0.25347246  0.47069400  0.62186225    -0.05800
C757        C  0.22461682  0.49067794  0.63339059     0.00200
C758        C  0.21853351  0.53172714  0.63046460    -0.08300
C759        C  0.18643649  0.55469397  0.64160250     0.62100
H760        H  0.23919693  0.58293821  0.61433728     0.12800
H761        H  0.25756380  0.43931955  0.62410272     0.12800
C762        C  0.30759976  0.46727006  0.59544037     0.62300
F763        F  0.18200405  0.59252538  0.63407440    -0.22800
F764        F  0.19576941  0.55758092  0.66189862    -0.20200
F765        F  0.15074413  0.53589992  0.63950257    -0.19800
F766        F  0.34536907  0.47711299  0.60111443    -0.19900
F767        F  0.30251447  0.47557626  0.57511014    -0.20200
F768        F  0.30360887  0.42702700  0.59797025    -0.22900
C769        C  0.30093233  0.73445980  0.55772483    -0.05700
C770        C  0.31602325  0.71474337  0.57473489     0.00200
C771        C  0.32562516  0.73700576  0.59220643    -0.08400
C772        C  0.32340614  0.77841409  0.59116453    -0.05800
C773        C  0.31183435  0.79833221  0.57344471     0.00200
C774        C  0.29847768  0.77583694  0.55668671    -0.08300
C775        C  0.28282365  0.79475513  0.53744100     0.62100
H776        H  0.29278433  0.71712540  0.54467077     0.12800
H777        H  0.33245441  0.79563592  0.60409699     0.12800
C778        C  0.33853586  0.71763108  0.61186755     0.62300
F779        F  0.26820951  0.76714939  0.52407505    -0.22800
F780        F  0.31273918  0.81456783  0.52763774    -0.20200
F781        F  0.25237199  0.82067085  0.54215496    -0.19800
F782        F  0.37580358  0.70128636  0.60956579    -0.19900
F783        F  0.31216525  0.68861718  0.61723412    -0.20200
F784        F  0.33989953  0.74437768  0.62767977    -0.22900
C785        C  0.32966241  0.49501970  0.51372016    -0.05700
C786        C  0.33753908  0.53543948  0.51271137     0.00200
C787        C  0.34809049  0.55240486  0.49386089    -0.08400
C788        C  0.34967051  0.52804868  0.47661088    -0.05800
C789        C  0.34162086  0.48756391  0.47759228     0.00200
C790        C  0.33191343  0.47049843  0.49659300    -0.08300
C791        C  0.32558641  0.42651597  0.49923983     0.62100
H792        H  0.32202891  0.48256086  0.52828584     0.12800
H793        H  0.35721736  0.54064508  0.46206833     0.12800
C794        C  0.35869074  0.59561522  0.49188632     0.62300
F795        F  0.32038498  0.41632528  0.51936975    -0.22800
F796        F  0.35811972  0.40586294  0.49201453    -0.20200
F797        F  0.29231693  0.41509750  0.48889713    -0.19800
F798        F  0.38798796  0.60489693  0.50551372    -0.19900
F799        F  0.32571242  0.61884356  0.49563598    -0.20200
F800        F  0.37248598  0.60456143  0.47268991    -0.22900
C801        C  0.77173965  0.52138058  0.60355242    -0.05700
C802        C  0.74154796  0.54557319  0.61150097     0.00200
C803        C  0.73706855  0.54908744  0.63281554    -0.08400
C804        C  0.76068543  0.52519360  0.64530892    -0.05800
C805        C  0.78883208  0.49897626  0.63722017     0.00200
C806        C  0.79585269  0.49818621  0.61609825    -0.08300
C807        C  0.82926373  0.47391789  0.60687615     0.62100
H808        H  0.77568058  0.51985926  0.58728827     0.12800
H809        H  0.75662394  0.52605963  0.66158284     0.12800
C810        C  0.70869982  0.57862665  0.64248484     0.62300
F811        F  0.83504894  0.48279565  0.58662891    -0.22800
F812        F  0.82099416  0.43425937  0.60831565    -0.20200
F813        F  0.86393110  0.48159265  0.61698363    -0.19800
F814        F  0.67022351  0.56758712  0.63913369    -0.19900
F815        F  0.71486689  0.61561579  0.63437553    -0.20200
F816        F  0.71402215  0.58122677  0.66321446    -0.22900
C817        C  0.69615900  0.73830972  0.55426629    -0.05700
C818        C  0.69131586  0.71902092  0.57291197     0.00200
C819        C  0.68934989  0.74174081  0.59100597    -0.08400
C820        C  0.69013372  0.78298598  0.58945237    -0.05800
C821        C  0.69190925  0.80218166  0.57068237     0.00200
C822        C  0.69583225  0.77953241  0.55268187    -0.08300
C823        C  0.69733269  0.79816508  0.53174365     0.62100
H824        H  0.69831258  0.72072347  0.54062424     0.12800
H825        H  0.68765303  0.80082619  0.60300867     0.12800
C826        C  0.68531439  0.72331755  0.61188440     0.62300
F827        F  0.69931409  0.77020720  0.51647313    -0.22800
F828        F  0.73032755  0.82145103  0.53002700    -0.20200
F829        F  0.66374203  0.82078955  0.52862595    -0.19800
F830        F  0.71550286  0.69629012  0.61493233    -0.19900
F831        F  0.64930801  0.70491922  0.61358339    -0.20200
F832        F  0.68725324  0.75111219  0.62719964    -0.22900
C833        C  0.71218897  0.51696245  0.51201465    -0.05700
C834        C  0.67584006  0.53286163  0.51821843     0.00200
C835        C  0.64171039  0.52634812  0.50653865    -0.08400
C836        C  0.64555507  0.50483832  0.48848398    -0.05800
C837        C  0.68170984  0.48804052  0.48237987     0.00200
C838        C  0.71562013  0.49339624  0.49453896    -0.08300
C839        C  0.75508438  0.47432944  0.48935206     0.62100
H840        H  0.73766324  0.52212209  0.52142062     0.12800
H841        H  0.61983086  0.49993509  0.47922731     0.12800
C842        C  0.60147018  0.54225135  0.51297071     0.62300
F843        F  0.78452466  0.48628584  0.50234137    -0.22800
F844        F  0.76619643  0.48428995  0.46986673    -0.20200
F845        F  0.75219683  0.43384018  0.49091455    -0.19800
F846        F  0.60324050  0.58248872  0.51609058    -0.19900
F847        F  0.58961792  0.52409081  0.53067292    -0.20200
F848        F  0.57304235  0.53534232  0.49847787    -0.22900
C849        C  0.52749209  0.57212459  0.58128694    -0.05700
C850        C  0.54647959  0.60453118  0.57245495     0.00200
C851        C  0.52331088  0.63536011  0.56380532    -0.08400
C852        C  0.48213909  0.63198855  0.56412296    -0.05800
C853        C  0.46344707  0.59939632  0.57265749     0.00200
C854        C  0.48626105  0.56882425  0.58148184    -0.08300
C855        C  0.46749158  0.53222305  0.59037188     0.62100
H856        H  0.54532104  0.54877033  0.58778905     0.12800
H857        H  0.46390946  0.65491428  0.55748457     0.12800
C858        C  0.54121272  0.67170364  0.55414618     0.62300
F859        F  0.49540792  0.50438569  0.59610030    -0.22800
F860        F  0.44327082  0.51499962  0.57618079    -0.20200
F861        F  0.44559046  0.54229428  0.60734713    -0.19800
F862        F  0.56230315  0.66098111  0.53699567    -0.19900
F863        F  0.56571099  0.69012236  0.56779152    -0.20200
F864        F  0.51273942  0.69891390  0.54833454    -0.22900
C865        C  0.80001135  0.52528847  0.37967583    -0.05700
C866        C  0.79518791  0.51567681  0.35918234     0.00200
C867        C  0.77090212  0.48380008  0.35371222    -0.08400
C868        C  0.74960890  0.46468464  0.36903185    -0.05800
C869        C  0.75337038  0.47514267  0.38948447     0.00200
C870        C  0.78025596  0.50482693  0.39509594    -0.08300
C871        C  0.78731369  0.51577705  0.41707667     0.62100
H872        H  0.81941440  0.54925723  0.38349150     0.12800
H873        H  0.72960917  0.44126308  0.36514474     0.12800
C874        C  0.76663250  0.47057816  0.33186128     0.62300
F875        F  0.81369372  0.54636908  0.41890590    -0.22800
F876        F  0.80285718  0.48368736  0.42728811    -0.20200
F877        F  0.75223329  0.52742838  0.42612852    -0.19800
F878        F  0.80259900  0.45688775  0.32466105    -0.19900
F879        F  0.75378435  0.50175479  0.32004788    -0.20200
F880        F  0.73983886  0.44039386  0.32993250    -0.22900
C881        C  0.75606916  0.01634426  0.35349897    -0.05700
C882        C  0.78133634  0.98767667  0.36177356     0.00200
C883        C  0.78507265  0.98460135  0.38303851    -0.08400
C884        C  0.76272782  0.01024639  0.39534818    -0.05800
C885        C  0.73624412  0.03801026  0.38717861     0.00200
C886        C  0.73284524  0.04137938  0.36581133    -0.08300
C887        C  0.70533297  0.07116701  0.35588217     0.62100
H888        H  0.75383872  0.01816889  0.33717336     0.12800
H889        H  0.76489681  0.00783505  0.41165064     0.12800
C890        C  0.81263962  0.95467552  0.39278960     0.62300
F891        F  0.71012758  0.07196439  0.33504730    -0.22800
F892        F  0.71279168  0.10852695  0.36319322    -0.20200
F893        F  0.66661443  0.06155080  0.35990356    -0.19800
F894        F  0.84987343  0.95724752  0.38430788    -0.19900
F895        F  0.79831205  0.91714216  0.38988975    -0.20200
F896        F  0.81609427  0.96084154  0.41342436    -0.22900
C897        C  0.85054984  0.77372337  0.33777877    -0.05700
C898        C  0.84370292  0.79377566  0.31956701     0.00200
C899        C  0.83773626  0.77215945  0.30149976    -0.08400
C900        C  0.83991344  0.73084371  0.30229521    -0.05800
C901        C  0.84658661  0.71066411  0.32051765     0.00200
C902        C  0.85207866  0.73233986  0.33865440    -0.08300
C903        C  0.86025462  0.71226352  0.35877150     0.62100
H904        H  0.85485768  0.79093050  0.35139271     0.12800
H905        H  0.83550729  0.71380528  0.28863592     0.12800
C906        C  0.82712792  0.79231853  0.28169075     0.62300
F907        F  0.86932897  0.73911220  0.37379241    -0.22800
F908        F  0.89185082  0.68641045  0.35676133    -0.20200
F909        F  0.82733023  0.69191730  0.36502425    -0.19800
F910        F  0.85853740  0.81415111  0.27477593    -0.19900
F911        F  0.79476081  0.81686359  0.28462406    -0.20200
F912        F  0.81774893  0.76542485  0.26674290    -0.22900
C913        C  0.77162587  0.93564460  0.23261031    -0.05700
C914        C  0.73037648  0.93578007  0.23412487     0.00200
C915        C  0.71220462  0.93627965  0.25351544    -0.08400
C916        C  0.73635389  0.93578746  0.27074447    -0.05800
C917        C  0.77760981  0.93425628  0.26922164     0.00200
C918        C  0.79577930  0.93471528  0.24982514    -0.08300
C919        C  0.84024649  0.93206877  0.24711740     0.62100
H920        H  0.78486973  0.93531545  0.21765879     0.12800
H921        H  0.72307582  0.93554938  0.28568514     0.12800
C922        C  0.66773033  0.93487403  0.25615756     0.62300
F923        F  0.85117749  0.93030132  0.22691389    -0.22800
F924        F  0.85457994  0.89842103  0.25647059    -0.20200
F925        F  0.85766521  0.96490536  0.25544689    -0.19800
F926        F  0.65333603  0.90170313  0.24665914    -0.19900
F927        F  0.65047162  0.96822724  0.24790911    -0.20200
F928        F  0.65670993  0.93327397  0.27634979    -0.22900
C929        C  0.73521967  0.58822473  0.26907742    -0.05700
C930        C  0.77424315  0.57414117  0.26725106     0.00200
C931        C  0.78775504  0.56008576  0.24810508    -0.08400
C932        C  0.76193554  0.56194671  0.23152459    -0.05800
C933        C  0.72349807  0.57725990  0.23326556     0.00200
C934        C  0.70958197  0.59037578  0.25243201    -0.08300
C935        C  0.66864261  0.60822868  0.25530458     0.62100
H936        H  0.72500812  0.59845783  0.28373700     0.12800
H937        H  0.77184584  0.55179489  0.21678777     0.12800
C938        C  0.82923177  0.54389186  0.24477154     0.62300
F939        F  0.66283586  0.62247632  0.27476341    -0.22800
F940        F  0.64050539  0.57996113  0.25176083    -0.20200
F941        F  0.66329049  0.63936652  0.24206639    -0.19800
F942        F  0.83497503  0.51076009  0.25660929    -0.19900
F943        F  0.85657589  0.57216899  0.24970769    -0.20200
F944        F  0.83594608  0.53313915  0.22480474    -0.22900
C945        C  0.65267601  0.73289374  0.19715602    -0.05700
C946        C  0.65801320  0.71364693  0.17849729     0.00200
C947        C  0.66238684  0.73651243  0.16066050    -0.08400
C948        C  0.66312455  0.77781975  0.16242656    -0.05800
C949        C  0.65872879  0.79712512  0.18116836     0.00200
C950        C  0.65250589  0.77419894  0.19890716    -0.08300
C951        C  0.64564350  0.79256498  0.21968391     0.62100
H952        H  0.64890992  0.71506049  0.21058582     0.12800
H953        H  0.66720047  0.79548979  0.14896647     0.12800
C954        C  0.66523092  0.71790297  0.13974851     0.62300
F955        F  0.64055308  0.76442727  0.23459859    -0.22800
F956        F  0.61192913  0.81585931  0.21935171    -0.20200
F957        F  0.67767231  0.81504671  0.22506117    -0.19800
F958        F  0.63379202  0.69299052  0.13682679    -0.19900
F959        F  0.70021900  0.69692850  0.13785878    -0.20200
F960        F  0.66426654  0.74587064  0.12450821    -0.22900
C961        C  0.25455643  0.50000582  0.35019686    -0.05700
C962        C  0.22972048  0.52949694  0.35837291     0.00200
C963        C  0.22848413  0.53486290  0.37970245    -0.08400
C964        C  0.25277927  0.51092991  0.39192249    -0.05800
C965        C  0.27841214  0.48223146  0.38369561     0.00200
C966        C  0.27903490  0.47625310  0.36241277    -0.08300
C967        C  0.30470348  0.44461652  0.35249641     0.62100
H968        H  0.25526818  0.49613115  0.33392885     0.12800
H969        H  0.25262062  0.51521397  0.40816726     0.12800
C970        C  0.20182765  0.56551405  0.38973434     0.62300
F971        F  0.29693780  0.44080676  0.33203449    -0.22800
F972        F  0.29778988  0.40857260  0.36152140    -0.20200
F973        F  0.34401204  0.45406194  0.35446996    -0.19800
F974        F  0.16347618  0.56110913  0.38319443    -0.19900
F975        F  0.21480398  0.60286820  0.38498168    -0.20200
F976        F  0.20165213  0.56201266  0.41061452    -0.22900
C977        C  0.98761048  0.56199133  0.30309666    -0.05700
C978        C  0.96717329  0.56847381  0.32137224     0.00200
C979        C  0.98892825  0.57138995  0.33967175    -0.08400
C980        C  0.03035803  0.57073754  0.33857703    -0.05800
C981        C  0.05064762  0.56706909  0.32009174     0.00200
C982        C  0.02895624  0.56130938  0.30202332    -0.08300
C983        C  0.04883480  0.55635383  0.28147170     0.62100
H984        H  0.97080833  0.55885151  0.28932504     0.12800
H985        H  0.04744284  0.57458660  0.35222017     0.12800
C986        C  0.96920119  0.57613814  0.36027710     0.62300
F987        F  0.02182389  0.55240851  0.26598453    -0.22800
F988        F  0.07238763  0.52283554  0.28153015    -0.20200
F989        F  0.07146488  0.58896355  0.27720631    -0.19800
F990        F  0.94299604  0.54582168  0.36343796    -0.19900
F991        F  0.94950046  0.61199585  0.36127562    -0.20200
F992        F  0.99619144  0.57507442  0.37591741    -0.22900
C993        C  0.23580316  0.02148023  0.39690678    -0.05700
C994        C  0.26468533  0.04656148  0.38892981     0.00200
C995        C  0.26755184  0.05124072  0.36760353    -0.08400
C996        C  0.24418710  0.02758640  0.35506602    -0.05800
C997        C  0.21741900  0.00053953  0.36307672     0.00200
C998        C  0.21156485  0.99877884  0.38429550    -0.08300
C999        C  0.17883631  0.97440620  0.39351878     0.62100
H1000       H  0.23284650  0.01908133  0.41318897     0.12800
H1001       H  0.24742518  0.02935342  0.33876942     0.12800
C1002       C  0.29416523  0.08168007  0.35796258     0.62300
F1003       F  0.17360497  0.98256318  0.41390451    -0.22800
F1004       F  0.18757243  0.93472167  0.39153442    -0.20200
F1005       F  0.14370098  0.98279782  0.38380395    -0.19800
F1006       F  0.33315691  0.07014897  0.35986156    -0.19900
F1007       F  0.28827447  0.11784816  0.36725862    -0.20200
F1008       F  0.28635577  0.08639811  0.33754826    -0.22900
C1009       C  0.97844753  0.96424322  0.31768193    -0.05700
C1010       C  0.96032882  0.93543824  0.32966182     0.00200
C1011       C  0.98399217  0.91066726  0.34205891    -0.08400
C1012       C  0.02512774  0.91502235  0.34142194    -0.05800
C1013       C  0.04344448  0.94227443  0.32853886     0.00200
C1014       C  0.01964041  0.96824230  0.31684912    -0.08300
C1015       C  0.03712311  0.99975936  0.30331198     0.62100
H1016       H  0.95994285  0.98302770  0.30839792     0.12800
H1017       H  0.04353646  0.89562237  0.35040371     0.12800
C1018       C  0.96649253  0.87827706  0.35508724     0.62300
F1019       F  0.00858020  0.02564395  0.29619892    -0.22800
F1020       F  0.05533679  0.98233895  0.28674059    -0.20200
F1021       F  0.06420803  0.02151694  0.31403323    -0.19800
F1022       F  0.94475263  0.85308750  0.34316537    -0.19900
F1023       F  0.94254672  0.89472213  0.36992378    -0.20200
F1024       F  0.99525821  0.85595768  0.36465536    -0.22900
C1025       C  0.20081639  0.74015687  0.32407827    -0.05700
C1026       C  0.16506731  0.72104246  0.32027674     0.00200
C1027       C  0.13027569  0.74409966  0.31745686    -0.08400
C1028       C  0.13283355  0.78533505  0.31867072    -0.05800
C1029       C  0.16858489  0.80438472  0.32226517     0.00200
C1030       C  0.20341111  0.78151274  0.32486453    -0.08300
C1031       C  0.24337980  0.80037936  0.32766996     0.62100
H1032       H  0.22714775  0.72231313  0.32607690     0.12800
H1033       H  0.10658613  0.80330406  0.31664869     0.12800
C1034       C  0.09042559  0.72587756  0.31321666     0.62300
F1035       F  0.27369579  0.77273050  0.32755622    -0.22800
F1036       F  0.24431380  0.82000750  0.34600975    -0.20200
F1037       F  0.25036783  0.82665559  0.31209350    -0.19800
F1038       F  0.08131600  0.69887430  0.32814324    -0.19900
F1039       F  0.09131164  0.70742337  0.29453782    -0.20200
F1040       F  0.06040321  0.75384769  0.31282387    -0.22900
C1041       C  0.52219345  0.55777181  0.19097522    -0.05700
C1042       C  0.54266205  0.56386957  0.17278134     0.00200
C1043       C  0.52137849  0.56592746  0.15441015    -0.08400
C1044       C  0.47992893  0.56645636  0.15528825    -0.05800
C1045       C  0.45923767  0.56428723  0.17377147     0.00200
C1046       C  0.48081732  0.55776249  0.19192235    -0.08300
C1047       C  0.46104919  0.55219705  0.21242682     0.62100
H1048       H  0.53901104  0.55518874  0.20480017     0.12800
H1049       H  0.46337107  0.57004018  0.14143369     0.12800
C1050       C  0.54197693  0.56714567  0.13395323     0.62300
F1051       F  0.48805151  0.54402764  0.22754341    -0.22800
F1052       F  0.43541589  0.52088036  0.21153745    -0.20200
F1053       F  0.44076505  0.58617664  0.21790045    -0.19800
F1054       F  0.57085856  0.53807677  0.13301714    -0.19900
F1055       F  0.55886489  0.60355504  0.13102456    -0.20200
F1056       F  0.51599340  0.56070795  0.11823023    -0.22900
C1057       C  0.23398279  0.60081026  0.22589831    -0.05700
C1058       C  0.27288840  0.58610299  0.22651119     0.00200
C1059       C  0.28835587  0.57240256  0.24522479    -0.08400
C1060       C  0.26407270  0.57391676  0.26249814    -0.05800
C1061       C  0.22560426  0.58930040  0.26192174     0.00200
C1062       C  0.21003502  0.60306293  0.24332865    -0.08300
C1063       C  0.16919755  0.62170311  0.24194008     0.62100
H1064       H  0.22252072  0.61116952  0.21157293     0.12800
H1065       H  0.27527670  0.56351078  0.27687399     0.12800
C1066       C  0.33065049  0.55788493  0.24747249     0.62300
F1067       F  0.16173911  0.63666910  0.22282943    -0.22800
F1068       F  0.16579959  0.65246748  0.25562826    -0.20200
F1069       F  0.14089545  0.59388076  0.24613555    -0.19800
F1070       F  0.35623146  0.58680387  0.24108453    -0.19900
F1071       F  0.33660041  0.52406746  0.23612838    -0.20200
F1072       F  0.33975789  0.54896407  0.26737972    -0.22900
C1073       C  0.52661560  0.94369034  0.19650025    -0.05700
C1074       C  0.54638831  0.93869650  0.17793079     0.00200
C1075       C  0.52412802  0.93679433  0.15984367    -0.08400
C1076       C  0.48276582  0.93673665  0.16127061    -0.05800
C1077       C  0.46291042  0.93987884  0.17994603     0.00200
C1078       C  0.48526278  0.94487537  0.19791420    -0.08300
C1079       C  0.46618661  0.95102398  0.21859816     0.62100
H1080       H  0.54399333  0.94577394  0.21014390     0.12800
H1081       H  0.46551276  0.93382915  0.14762425     0.12800
C1082       C  0.54350045  0.93591463  0.13905428     0.62300
F1083       F  0.49380742  0.95563154  0.23374006    -0.22800
F1084       F  0.44347500  0.91885415  0.22359530    -0.20200
F1085       F  0.44293628  0.98476588  0.21830837    -0.19800
F1086       F  0.56245035  0.90012573  0.13594679    -0.19900
F1087       F  0.57037275  0.96610587  0.13758355    -0.20200
F1088       F  0.51629473  0.94098897  0.12370780    -0.22900
C1089       C  0.23216711  0.93880638  0.23078606    -0.05700
C1090       C  0.27336826  0.94070664  0.23232158     0.00200
C1091       C  0.29076285  0.94368562  0.25174623    -0.08400
C1092       C  0.26612593  0.94410874  0.26890748    -0.05800
C1093       C  0.22502134  0.94102316  0.26748616     0.00200
C1094       C  0.20746774  0.93889935  0.24802473    -0.08300
C1095       C  0.16323190  0.93519606  0.24528345     0.62100
H1096       H  0.21944950  0.93655196  0.21583597     0.12800
H1097       H  0.27908184  0.94616105  0.28380564     0.12800
C1098       C  0.33515621  0.94457568  0.25463037     0.62300
F1099       F  0.15298940  0.93190721  0.22509135    -0.22800
F1100       F  0.14420461  0.96821787  0.25301842    -0.20200
F1101       F  0.15004137  0.90192396  0.25517878    -0.19800
F1102       F  0.35001446  0.97891070  0.24653327    -0.19900
F1103       F  0.35258977  0.91234954  0.24519348    -0.20200
F1104       F  0.34546782  0.94330296  0.27487769    -0.22900
C1105       C  0.33372439  0.78273390  0.15984756    -0.05700
C1106       C  0.34608733  0.80032862  0.17800250     0.00200
C1107       C  0.35794010  0.77568424  0.19433716    -0.08400
C1108       C  0.35763918  0.73458591  0.19156366    -0.05800
C1109       C  0.34456353  0.71705640  0.17356396     0.00200
C1110       C  0.33207732  0.74159065  0.15737054    -0.08300
C1111       C  0.31697980  0.72495003  0.13753072     0.62100
H1112       H  0.32447128  0.80165422  0.14754447     0.12800
H1113       H  0.36674857  0.71554404  0.20385031     0.12800
C1114       C  0.37013217  0.79197329  0.21481665     0.62300
F1115       F  0.30917019  0.75420616  0.12347220    -0.22800
F1116       F  0.28229055  0.70500331  0.14094229    -0.20200
F1117       F  0.34484408  0.69959973  0.12918202    -0.19800
F1118       F  0.33941122  0.81381246  0.22314587    -0.19900
F1119       F  0.40296298  0.81535369  0.21258439    -0.20200
F1120       F  0.37956174  0.76239361  0.22843504    -0.22900
C1121       C  0.29834625  0.00461009  0.86608123    -0.05700
C1122       C  0.28429067  0.04238765  0.86089384     0.00200
C1123       C  0.24822997  0.05637049  0.86937666    -0.08400
C1124       C  0.22775576  0.03197610  0.88280134    -0.05800
C1125       C  0.24198171  0.99456840  0.88828059     0.00200
C1126       C  0.27801820  0.98041530  0.87986590    -0.08300
C1127       C  0.29477660  0.93999221  0.88509884     0.62100
H1128       H  0.32583837  0.99437527  0.85942774     0.12800
H1129       H  0.20033759  0.04238879  0.88945709     0.12800
C1130       C  0.23069507  0.09655020  0.86422402     0.62300
F1131       F  0.32812125  0.93088011  0.87380061    -0.22800
F1132       F  0.26707222  0.91136636  0.88130647    -0.20200
F1133       F  0.30510909  0.93898439  0.90532161    -0.19800
F1134       F  0.22760988  0.10059705  0.84345280    -0.19900
F1135       F  0.25434623  0.12583216  0.87190691    -0.20200
F1136       F  0.19337148  0.10184700  0.87240817    -0.22900
C1137       C  0.74854746  0.00287349  0.89569834    -0.05700
C1138       C  0.77117612  0.97205773  0.88729517     0.00200
C1139       C  0.76895489  0.96444491  0.86622230    -0.08400
C1140       C  0.74507529  0.98915967  0.85420873    -0.05800
C1141       C  0.72404025  0.02136223  0.86245371     0.00200
C1142       C  0.72520126  0.02800487  0.88368477    -0.08300
C1143       C  0.70205283  0.06121914  0.89383329     0.62100
H1144       H  0.75048030  0.00809342  0.91184057     0.12800
H1145       H  0.74375634  0.98422820  0.83802795     0.12800
C1146       C  0.79123398  0.93031105  0.85639304     0.62300
F1147       F  0.70343649  0.05871514  0.91474339    -0.22800
F1148       F  0.66292000  0.05971235  0.88817483    -0.20200
F1149       F  0.71762484  0.09710951  0.88829842    -0.19800
F1150       F  0.78382055  0.89584532  0.86682034    -0.19900
F1151       F  0.83121146  0.93759739  0.85654331    -0.20200
F1152       F  0.78007127  0.92474166  0.83646994    -0.22900
C1153       C  0.98506284  0.94676703  0.91289786    -0.05700
C1154       C  0.96803220  0.91523159  0.92347725     0.00200
C1155       C  0.99297525  0.88720709  0.93319744    -0.08400
C1156       C  0.03379264  0.89293508  0.93255155    -0.05800
C1157       C  0.05064501  0.92503739  0.92254308     0.00200
C1158       C  0.02603853  0.95237799  0.91227029    -0.08300
C1159       C  0.04242509  0.98798797  0.90128765     0.62100
H1160       H  0.96582976  0.96772780  0.90539457     0.12800
H1161       H  0.05317890  0.87214611  0.94009245     0.12800
C1162       C  0.97738870  0.85109155  0.94409638     0.62300
F1163       F  0.01282407  0.01245003  0.89398862    -0.22800
F1164       F  0.06514526  0.97573421  0.88497057    -0.20200
F1165       F  0.06516636  0.00987107  0.91437320    -0.19800
F1166       F  0.95386282  0.82972494  0.93116190    -0.19900
F1167       F  0.95595474  0.86248130  0.96101625    -0.20200
F1168       F  0.00748110  0.82629996  0.95056440    -0.22900
C1169       C  0.22434732  0.00961153  0.12065546    -0.05700
C1170       C  0.24260147  0.04217625  0.11173217     0.00200
C1171       C  0.28200420  0.05113593  0.11693433    -0.08400
C1172       C  0.30204092  0.02610092  0.13056238    -0.05800
C1173       C  0.28393249  0.99284798  0.13895294     0.00200
C1174       C  0.24413699  0.98481871  0.13426140    -0.08300
C1175       C  0.22198484  0.95092541  0.14392538     0.62100
H1176       H  0.19421095  0.00323980  0.11661823     0.12800
H1177       H  0.33226334  0.03205261  0.13461580     0.12800
C1178       C  0.30248541  0.08731193  0.10868309     0.62300
F1179       F  0.18206941  0.95272985  0.13978196    -0.22800
F1180       F  0.22619235  0.95208024  0.16474620    -0.20200
F1181       F  0.23651614  0.91546291  0.13655206    -0.19800
F1182       F  0.27925553  0.12046710  0.11206644    -0.19900
F1183       F  0.30918576  0.08290473  0.08813312    -0.20200
F1184       F  0.33844233  0.09329769  0.11791945    -0.22900
C1185       C  0.14883705  0.01709661  0.01321298    -0.05700
C1186       C  0.18453336  0.03382764  0.01929723     0.00200
C1187       C  0.21865003  0.02860303  0.00701670    -0.08400
C1188       C  0.21539985  0.00707406  0.98886048    -0.05800
C1189       C  0.17927606  0.99194165  0.98251042     0.00200
C1190       C  0.14542681  0.99643429  0.99493197    -0.08300
C1191       C  0.10601112  0.97884790  0.98919234     0.62100
H1192       H  0.12300641  0.02134643  0.02269508     0.12800
H1193       H  0.24086547  0.00283762  0.97911560     0.12800
C1194       C  0.25829375  0.04507833  0.01298435     0.62300
F1195       F  0.07846329  0.98265050  0.00463549    -0.22800
F1196       F  0.11078277  0.93912627  0.98503649    -0.20200
F1197       F  0.09109164  0.99777416  0.97232418    -0.19800
F1198       F  0.26807955  0.03235274  0.03221675    -0.19900
F1199       F  0.25670499  0.08577637  0.01263379    -0.20200
F1200       F  0.28799771  0.03296925  0.99985268    -0.22900
C1201       C  0.73823574  0.03893932  0.11545680    -0.05700
C1202       C  0.77678267  0.02556664  0.11123366     0.00200
C1203       C  0.79095738  0.99074600  0.12080823    -0.08400
C1204       C  0.76649125  0.97174920  0.13485786    -0.05800
C1205       C  0.72836947  0.98558956  0.13946013     0.00200
C1206       C  0.71361910  0.01958780  0.12941979    -0.08300
C1207       C  0.67210562  0.03526564  0.13310128     0.62100
H1208       H  0.72762338  0.06526212  0.10790811     0.12800
H1209       H  0.77726377  0.94567632  0.14257196     0.12800
C1210       C  0.83110051  0.97259003  0.11594333     0.62300
F1211       F  0.66226795  0.06529371  0.11981992    -0.22800
F1212       F  0.66903968  0.05000144  0.15257852    -0.20200
F1213       F  0.64522139  0.00540885  0.13049901    -0.19800
F1214       F  0.86062228  0.99705608  0.12261293    -0.19900
F1215       F  0.83470655  0.96679539  0.09527138    -0.20200
F1216       F  0.83646867  0.93638706  0.12522809    -0.22900
C1217       C  0.83934713  0.04172141  0.99951030    -0.05700
C1218       C  0.83642909  0.02080696  0.01777509     0.00200
C1219       C  0.83393154  0.97906493  0.01717920    -0.08400
C1220       C  0.83443068  0.96006264  0.99820054    -0.05800
C1221       C  0.83842879  0.98094518  0.97995565     0.00200
C1222       C  0.84096018  0.02267861  0.98058700    -0.08300
C1223       C  0.84513220  0.04743212  0.96154840     0.62100
H1224       H  0.84157580  0.07348024  0.00020645     0.12800
H1225       H  0.83276661  0.92826110  0.99750584     0.12800
C1226       C  0.83049914  0.95437378  0.03628599     0.62300
F1227       F  0.84330469  0.08741084  0.96570262    -0.22800
F1228       F  0.81504866  0.03896130  0.94824532    -0.20200
F1229       F  0.88114676  0.03963914  0.95242173    -0.19800
F1230       F  0.79897426  0.96765292  0.04787463    -0.19900
F1231       F  0.86481995  0.95683465  0.04737417    -0.20200
F1232       F  0.82449317  0.91497321  0.03196515    -0.22900
C1233       C  0.98644840  0.08382348  0.08860963    -0.05700
C1234       C  0.96666756  0.09793858  0.07136096     0.00200
C1235       C  0.98916785  0.11366815  0.05510701    -0.08400
C1236       C  0.03036008  0.11462496  0.05689639    -0.05800
C1237       C  0.05022927  0.10017898  0.07400298     0.00200
C1238       C  0.02785125  0.08416659  0.09021891    -0.08300
C1239       C  0.04701919  0.06670435  0.10898606     0.62100
H1240       H  0.96907665  0.07177386  0.10085700     0.12800
H1241       H  0.04761398  0.12661636  0.04459779     0.12800
C1242       C  0.97049421  0.12958874  0.03583338     0.62300
F1243       F  0.01953188  0.05169648  0.12239200    -0.22800
F1244       F  0.06777235  0.09544407  0.11907987    -0.20200
F1245       F  0.07222042  0.03615747  0.10347929    -0.19800
F1246       F  0.94387441  0.15940248  0.04057055    -0.19900
F1247       F  0.95158621  0.09957204  0.02573552    -0.20200
F1248       F  0.99811711  0.14506440  0.02264765    -0.22900
C1249       C  0.26079538  0.52993424  0.89215572    -0.05700
C1250       C  0.23591204  0.55916478  0.88411712     0.00200
C1251       C  0.23719214  0.56724099  0.86307157    -0.08400
C1252       C  0.26178027  0.54377788  0.85061438    -0.05800
C1253       C  0.28433857  0.51239030  0.85846299     0.00200
C1254       C  0.28485075  0.50604333  0.87970720    -0.08300
C1255       C  0.31035617  0.47421168  0.88936191     0.62100
H1256       H  0.25977459  0.52456590  0.90831077     0.12800
H1257       H  0.26217208  0.54872429  0.83441938     0.12800
C1258       C  0.21312358  0.60059485  0.85378238     0.62300
F1259       F  0.31094091  0.47752284  0.91025303    -0.22800
F1260       F  0.34874039  0.47711155  0.88242604    -0.20200
F1261       F  0.29583482  0.43746550  0.88464289    -0.19800
F1262       F  0.21958657  0.63519354  0.86429608    -0.19900
F1263       F  0.17348912  0.59179730  0.85449775    -0.20200
F1264       F  0.22320357  0.60686051  0.83371908    -0.22900
C1265       C  0.16030607  0.79498690  0.90723965    -0.05700
C1266       C  0.18424195  0.81214615  0.92202208     0.00200
C1267       C  0.20616981  0.78738206  0.93520138    -0.08400
C1268       C  0.20111820  0.74634915  0.93390288    -0.05800
C1269       C  0.17544128  0.72921677  0.91984015     0.00200
C1270       C  0.15530861  0.75401687  0.90583708    -0.08300
C1271       C  0.12777857  0.73806441  0.88975311     0.62100
H1272       H  0.14413811  0.81423943  0.89712397     0.12800
H1273       H  0.21683971  0.72725776  0.94428354     0.12800
C1274       C  0.23504791  0.80375118  0.95047887     0.62300
F1275       F  0.11139909  0.76773682  0.87802307    -0.22800
F1276       F  0.09711699  0.71811388  0.89885408    -0.20200
F1277       F  0.14843010  0.71301251  0.87689483    -0.19800
F1278       F  0.21482602  0.82316570  0.96581488    -0.19900
F1279       F  0.26038404  0.82954790  0.94096282    -0.20200
F1280       F  0.25771446  0.77428372  0.95925308    -0.22900
C1281       C  0.76564313  0.54209904  0.86805216    -0.05700
C1282       C  0.75855150  0.53523488  0.88867347     0.00200
C1283       C  0.72975453  0.50748951  0.89455014    -0.08400
C1284       C  0.70919816  0.48739426  0.87934525    -0.05800
C1285       C  0.71637496  0.49417048  0.85869609     0.00200
C1286       C  0.74501302  0.52214281  0.85284937    -0.08300
C1287       C  0.75502827  0.53002483  0.83077417     0.62100
H1288       H  0.78786115  0.56331592  0.86392971     0.12800
H1289       H  0.68732384  0.46584775  0.88349438     0.12800
C1290       C  0.72175129  0.49778944  0.91664611     0.62300
F1291       F  0.78624861  0.55562072  0.82873019    -0.22800
F1292       F  0.72286030  0.54683861  0.82120168    -0.20200
F1293       F  0.76544782  0.49512321  0.82120185    -0.19800
F1294       F  0.70586731  0.53040759  0.92638528    -0.19900
F1295       F  0.75644822  0.48655645  0.92602937    -0.20200
F1296       F  0.69536194  0.46724420  0.91873700    -0.22900
C1297       C  0.82485519  0.72908384  0.90930297    -0.05700
C1298       C  0.81696887  0.71103773  0.92803029     0.00200
C1299       C  0.80996387  0.73529524  0.94527695    -0.08400
C1300       C  0.81278333  0.77640083  0.94314522    -0.05800
C1301       C  0.82267016  0.79431594  0.92465975     0.00200
C1302       C  0.82794725  0.77021049  0.90720725    -0.08300
C1303       C  0.83712743  0.78712809  0.88641975     0.62100
H1304       H  0.82991349  0.71045678  0.89621793     0.12800
H1305       H  0.80851224  0.79497834  0.95631623     0.12800
C1306       C  0.80022502  0.71854355  0.96602627     0.62300
F1307       F  0.83745185  0.75845806  0.87148186    -0.22800
F1308       F  0.87388827  0.80426085  0.88651580    -0.20200
F1309       F  0.80878470  0.81491066  0.88128693    -0.19800
F1310       F  0.83228363  0.69758527  0.97335809    -0.19900
F1311       F  0.76796361  0.69419355  0.96468561    -0.20200
F1312       F  0.79105330  0.74780254  0.97996315    -0.22900
C1313       C  0.97398570  0.56024014  0.92028297    -0.05700
C1314       C  0.95188134  0.59483410  0.92353851     0.00200
C1315       C  0.97102096  0.63165316  0.92425989    -0.08400
C1316       C  0.01221111  0.63222781  0.92270382    -0.05800
C1317       C  0.03466179  0.59756532  0.92027675     0.00200
C1318       C  0.01536054  0.56078186  0.91876853    -0.08300
C1319       C  0.03800406  0.52216952  0.91636898     0.62100
H1320       H  0.95851875  0.53256276  0.91949049     0.12800
H1321       H  0.02739193  0.66005514  0.92361342     0.12800
C1322       C  0.94821168  0.67034843  0.92611201     0.62300
F1323       F  0.05740982  0.52155756  0.89791364    -0.22800
F1324       F  0.01336716  0.48995927  0.91703144    -0.20200
F1325       F  0.06506450  0.51806551  0.93183390    -0.19800
F1326       F  0.93106941  0.67337732  0.94508704    -0.19900
F1327       F  0.91923879  0.67216240  0.91147541    -0.20200
F1328       F  0.97233644  0.70256778  0.92349167    -0.22900
C1329       C  0.22255130  0.48651345  0.12358846    -0.05700
C1330       C  0.23339452  0.48688101  0.10306828     0.00200
C1331       C  0.26638508  0.50932562  0.09686399    -0.08400
C1332       C  0.28785652  0.52974917  0.11170753    -0.05800
C1333       C  0.27739460  0.52856925  0.13231048     0.00200
C1334       C  0.24362422  0.50720592  0.13834525    -0.08300
C1335       C  0.22866725  0.50725622  0.16008507     0.62100
H1336       H  0.19710936  0.46959588  0.12805806     0.12800
H1337       H  0.31331634  0.54672938  0.10732543     0.12800
C1338       C  0.27836579  0.51279815  0.07474031     0.62300
F1339       F  0.19231982  0.48945521  0.16184872    -0.22800
F1340       F  0.22449863  0.54559454  0.16698546    -0.20200
F1341       F  0.25484188  0.48687755  0.17227303    -0.19800
F1342       F  0.24646147  0.52518932  0.06334439    -0.19900
F1343       F  0.29178672  0.47668292  0.06767434    -0.20200
F1344       F  0.30820685  0.53975686  0.07196926    -0.22900
C1345       C  0.19430906  0.24232647  0.05270430    -0.05700
C1346       C  0.18616562  0.22423008  0.07139845     0.00200
C1347       C  0.17814198  0.24842851  0.08856738    -0.08400
C1348       C  0.17854607  0.28957601  0.08619591    -0.05800
C1349       C  0.18456383  0.30754546  0.06731471     0.00200
C1350       C  0.19261876  0.28347274  0.05013298    -0.08300
C1351       C  0.19723005  0.30039963  0.02894069     0.62100
H1352       H  0.20047707  0.22373084  0.03972610     0.12800
H1353       H  0.17253305  0.30828520  0.09915256     0.12800
C1354       C  0.16747209  0.23164227  0.10919070     0.62300
F1355       F  0.20286516  0.27126820  0.01447938    -0.22800
F1356       F  0.22948746  0.32485241  0.02819048    -0.20200
F1357       F  0.16356253  0.32138773  0.02379064    -0.19800
F1358       F  0.19795462  0.20807141  0.11620303    -0.19900
F1359       F  0.13340856  0.20988007  0.10769008    -0.20200
F1360       F  0.16061979  0.26087769  0.12346895    -0.22900
C1361       C  0.16388794  0.53545847  0.01377154    -0.05700
C1362       C  0.16407535  0.49435180  0.01153625     0.00200
C1363       C  0.16206997  0.47771335  0.99187694    -0.08400
C1364       C  0.16211311  0.50312774  0.97512166    -0.05800
C1365       C  0.16220378  0.54436087  0.97727741     0.00200
C1366       C  0.16198827  0.56097012  0.99704706    -0.08300
C1367       C  0.15806425  0.60504028  0.00080299     0.62100
H1368       H  0.16471658  0.54756985  0.02893338     0.12800
H1369       H  0.16163571  0.49066945  0.96003466     0.12800
C1370       C  0.15811347  0.43362544  0.98841303     0.62300
F1371       F  0.15540681  0.61390266  0.02124255    -0.22800
F1372       F  0.12419068  0.61927672  0.99166877    -0.20200
F1373       F  0.19055300  0.62422614  0.99310911    -0.19800
F1374       F  0.12703562  0.41937870  0.99977421    -0.19900
F1375       F  0.19256132  0.41438531  0.99387075    -0.20200
F1376       F  0.15075198  0.42480307  0.96831758    -0.22900
C1377       C  0.77522648  0.51253104  0.11370525    -0.05700
C1378       C  0.76400089  0.47332700  0.11090028     0.00200
C1379       C  0.73220682  0.45809811  0.12230239    -0.08400
C1380       C  0.71222657  0.48332535  0.13595082    -0.05800
C1381       C  0.72303183  0.52289886  0.13852178     0.00200
C1382       C  0.75554865  0.53774758  0.12735157    -0.08300
C1383       C  0.77066312  0.57942755  0.13008306     0.62100
H1384       H  0.79976822  0.52343635  0.10489004     0.12800
H1385       H  0.68760366  0.47228169  0.14465037     0.12800
C1386       C  0.72011733  0.41530358  0.12057423     0.62300
F1387       F  0.80491734  0.58577393  0.11914057    -0.22800
F1388       F  0.77889405  0.58607424  0.15028451    -0.20200
F1389       F  0.74279162  0.60643634  0.12346988    -0.19800
F1390       F  0.75248445  0.39090288  0.12360578    -0.19900
F1391       F  0.70474398  0.40837552  0.10157975    -0.20200
F1392       F  0.69173518  0.40561191  0.13479385    -0.22900
C1393       C  0.83023751  0.22748769  0.09209151    -0.05700
C1394       C  0.81556305  0.20760220  0.07506028     0.00200
C1395       C  0.79677839  0.22995455  0.05957643    -0.08400
C1396       C  0.79664725  0.27134416  0.06101603    -0.05800
C1397       C  0.81462019  0.29113961  0.07713257     0.00200
C1398       C  0.83010397  0.26884873  0.09349473    -0.08300
C1399       C  0.84684857  0.28813472  0.11233601     0.62100
H1400       H  0.84350856  0.21034023  0.10411635     0.12800
H1401       H  0.78409472  0.28872805  0.04887770     0.12800
C1402       C  0.77785525  0.21093091  0.04125333     0.62300
F1403       F  0.85399938  0.26100655  0.12755072    -0.22800
F1404       F  0.82035962  0.31588079  0.11984212    -0.20200
F1405       F  0.88216965  0.30601527  0.10772624    -0.19800
F1406       F  0.74986884  0.18424028  0.04754523    -0.19900
F1407       F  0.80632795  0.19196660  0.02964648    -0.20200
F1408       F  0.75912474  0.23833745  0.02900205    -0.22900
C1409       C  0.83436555  0.48067870  0.97991580    -0.05700
C1410       C  0.81608619  0.51808376  0.98044782     0.00200
C1411       C  0.79568186  0.53015075  0.99830311    -0.08400
C1412       C  0.79659614  0.50518786  0.01527578    -0.05800
C1413       C  0.81645636  0.46873934  0.01498890     0.00200
C1414       C  0.83496304  0.45562268  0.99685657    -0.08300
C1415       C  0.85712545  0.41649593  0.99555076     0.62100
H1416       H  0.84916079  0.47143979  0.96612197     0.12800
H1417       H  0.78225567  0.51432627  0.02922277     0.12800
C1418       C  0.77378800  0.56936481  0.99988753     0.62300
F1419       F  0.87372325  0.41031730  0.97659679    -0.22800
F1420       F  0.83169168  0.38580350  0.99927500    -0.20200
F1421       F  0.88719436  0.41577964  0.00959835    -0.19800
F1422       F  0.74418753  0.57098894  0.98558910    -0.19900
F1423       F  0.79968359  0.59998195  0.99684639    -0.20200
F1424       F  0.75638194  0.57470389  0.01871151    -0.22900
C1425       C  0.97288102  0.41625973  0.05152579    -0.05700
C1426       C  0.95436311  0.41775446  0.07057893     0.00200
C1427       C  0.97791702  0.42157475  0.08819349    -0.08400
C1428       C  0.01917069  0.42392240  0.08585679    -0.05800
C1429       C  0.03759198  0.42177966  0.06675159     0.00200
C1430       C  0.01393379  0.41798425  0.04919275    -0.08300
C1431       C  0.03132494  0.41615049  0.02792596     0.62100
H1432       H  0.95471924  0.41347961  0.03820049     0.12800
H1433       H  0.03757574  0.42679511  0.09909862     0.12800
C1434       C  0.96017233  0.42220466  0.10938005     0.62300
F1435       F  0.00250036  0.41654610  0.01316815    -0.22800
F1436       F  0.05304631  0.38171361  0.02555950    -0.20200
F1437       F  0.05512179  0.44834268  0.02462669    -0.19800
F1438       F  0.93577114  0.45483888  0.11168232    -0.19900
F1439       F  0.98875743  0.42402848  0.12421411    -0.20200
F1440       F  0.93886110  0.38825115  0.11256190    -0.22900
loop_ 
_geom_bond_atom_site_label_1 
_geom_bond_atom_site_label_2 
_geom_bond_distance 
_geom_bond_site_symmetry_2 
_ccdc_geom_bond_type 
In1           O3   2.230       .  S
In1           O4   2.252       .  S
In1          O12   2.256       .  S
In1           O6   2.225       .  S
In1           O8   2.252       .  S
In1           O9   2.249       .  S
In1          O10   2.230       .  S
In1          O13   2.240       .  S
C2            O8   1.260       .  A
C2           O10   1.260       .  A
C2         C1426   1.490       .  S
O3           C11   1.257       .  A
O4           C11   1.262       .  A
C5           O12   1.261       .  A
C5            O6   1.259       .  A
C5         C1378   1.479       .  S
C7            O9   1.259       .  A
C7           O13   1.260       .  A
C7         C1413   1.481       .  S
C11        C1397   1.488       .  S
In14         O16   2.233       .  S
In14         O17   2.236       .  S
In14         O25   2.258       .  S
In14         O19   2.239       .  S
In14         O21   2.262       .  S
In14         O22   2.249       .  S
In14         O23   2.229       .  S
In14         O26   2.237       .  S
C15          O21   1.263       .  A
C15          O23   1.258       .  A
C15        C1429   1.489       .  S
O16          C24   1.261       .  A
O17          C24   1.260       .  A
C18          O25   1.259       .  A
C18          O19   1.260       .  A
C18        C1330   1.486       .  S
C20          O22   1.258       .  A
C20          O26   1.260       .  A
C20        C1349   1.489       .  S
C24        C1362   1.480       .  S
In27         O29   2.247       .  S
In27         O30   2.244       .  S
In27         O38   2.244       .  S
In27         O32   2.237       .  S
In27         O34   2.249       .  S
In27         O35   2.239       .  S
In27         O36   2.221       .  S
In27         O39   2.240       .  S
C28          O34   1.262       .  A
C28          O36   1.258       .  A
C28        C1314   1.473       .  S
O29          C37   1.261       .  A
O30          C37   1.259       .  A
C31          O38   1.259       .  A
C31          O32   1.260       .  A
C31        C1282   1.479       .  S
C33          O35   1.259       .  A
C33          O39   1.261       .  A
C33        C1410   1.489       .  S
C37        C1298   1.493       .  S
In40         O42   2.228       .  S
In40         O43   2.243       .  S
In40         O51   2.248       .  S
In40         O45   2.234       .  S
In40         O47   2.252       .  S
In40         O48   2.251       .  S
In40         O49   2.228       .  S
In40         O52   2.229       .  S
C41          O47   1.260       .  A
C41          O49   1.260       .  A
C41        C1317   1.480       .  S
O42          C50   1.260       .  A
O43          C50   1.260       .  A
C44          O51   1.261       .  A
C44          O45   1.258       .  A
C44        C1250   1.480       .  S
C46          O48   1.263       .  A
C46          O52   1.258       .  A
C46        C1269   1.492       .  S
C50        C1365   1.487       .  S
In53         O55   2.246       .  S
In53         O56   2.247       .  S
In53         O64   2.258       .  S
In53         O58   2.229       .  S
In53         O60   2.258       .  S
In53         O61   2.249       .  S
In53         O62   2.234       .  S
In53         O65   2.246       .  S
C54          O60   1.262       .  A
C54          O62   1.257       .  A
C54        C1234   1.493       .  S
O55          C63   1.258       .  A
O56          C63   1.263       .  A
C57          O64   1.262       .  A
C57          O58   1.258       .  A
C57        C1202   1.488       .  S
C59          O61   1.260       .  A
C59          O65   1.261       .  A
C59        C1394   1.495       .  S
C63        C1218   1.488       .  S
In66         O68   2.248       .  S
In66         O69   2.247       .  S
In66         O77   2.256       .  S
In66         O71   2.224       .  S
In66         O73   2.254       .  S
In66         O74   2.257       .  S
In66         O75   2.230       .  S
In66         O78   2.226       .  S
C67          O73   1.260       .  A
C67          O75   1.261       .  A
C67        C1237   1.492       .  S
O68          C76   1.257       .  A
O69          C76   1.260       .  A
C70          O77   1.260       .  A
C70          O71   1.259       .  A
C70        C1170   1.482       .  S
C72          O74   1.261       .  A
C72          O78   1.259       .  A
C72        C1186   1.482       .  S
C76        C1346   1.493       .  S
In79         O81   2.241       .  S
In79         O82   2.250       .  S
In79         O90   2.248       .  S
In79         O84   2.247       .  S
In79         O86   2.246       .  S
In79         O87   2.244       .  S
In79         O88   2.233       .  S
In79         O91   2.247       .  S
C80          O86   1.262       .  A
C80          O88   1.257       .  A
C80        C1154   1.486       .  S
O81          C89   1.260       .  A
O82          C89   1.263       .  A
C83          O90   1.260       .  A
C83          O84   1.258       .  A
C83        C1138   1.483       .  S
C85          O87   1.261       .  A
C85          O91   1.258       .  A
C85        C1301   1.493       .  S
C89        C1221   1.489       .  S
In92         O94   2.240       .  S
In92         O95   2.238       .  S
In92        O103   2.248       .  S
In92         O97   2.228       .  S
In92         O99   2.243       .  S
In92        O100   2.257       .  S
In92        O101   2.214       .  S
In92        O104   2.232       .  S
C93          O99   1.262       .  A
C93         O101   1.262       .  A
C93        C1157   1.479       .  S
O94         C102   1.261       .  A
O95         C102   1.259       .  A
C96         O103   1.258       .  A
C96          O97   1.259       .  A
C96        C1125   1.482       .  S
C98         O100   1.260       .  A
C98         O104   1.256       .  A
C98        C1189   1.472       .  S
C102       C1266   1.487       .  S
In105       O107   2.251       .  S
In105       O108   2.231       .  S
In105       O116   2.261       .  S
In105       O110   2.227       .  S
In105       O112   2.247       .  S
In105       O113   2.245       .  S
In105       O114   2.240       .  S
In105       O117   2.255       .  S
C106        O112   1.261       .  A
C106        O114   1.258       .  A
C106       C1106   1.493       .  S
O107        C115   1.262       .  A
O108        C115   1.257       .  A
C109        O116   1.260       .  A
C109        O110   1.257       .  A
C109       C1173   1.478       .  S
C111        O113   1.258       .  A
C111        O117   1.260       .  A
C111       C1090   1.486       .  S
C115       C1077   1.489       .  S
In118       O120   2.244       .  S
In118       O121   2.242       .  S
In118       O129   2.242       .  S
In118       O123   2.262       .  S
In118       O125   2.250       .  S
In118       O126   2.239       .  S
In118       O127   2.242       .  S
In118       O130   2.258       .  S
C119        O125   1.260       .  A
C119        O127   1.260       .  A
C119       C1109   1.490       .  S
O120        C128   1.262       .  A
O121        C128   1.260       .  A
C122        O129   1.257       .  A
C122        O123   1.260       .  A
C122       C1333   1.486       .  S
C124        O126   1.256       .  A
C124        O130   1.261       .  A
C124       C1045   1.492       .  S
C128       C1058   1.487       .  S
In131       O133   2.242       .  S
In131       O134   2.241       .  S
In131       O142   2.252       .  S
In131       O136   2.246       .  S
In131       O138   2.256       .  S
In131       O139   2.254       .  S
In131       O140   2.236       .  S
In131       O143   2.237       .  S
C132        O138   1.260       .  A
C132        O140   1.259       .  A
C132       C1029   1.484       .  S
O133        C141   1.262       .  A
O134        C141   1.260       .  A
C135        O142   1.261       .  A
C135        O136   1.259       .  A
C135        C997   1.481   1_565  S
C137        O139   1.259       .  A
C137        O143   1.261       .  A
C137       C1093   1.489       .  S
C141       C1013   1.488       .  S
In144       O146   2.231       .  S
In144       O147   2.247       .  S
In144       O155   2.249       .  S
In144       O149   2.246       .  S
In144       O151   2.259       .  S
In144       O152   2.239       .  S
In144       O153   2.241       .  S
In144       O156   2.242       .  S
C145        O151   1.261       .  A
C145        O153   1.256       .  A
C145       C1026   1.489       .  S
O146        C154   1.260       .  A
O147        C154   1.258       .  A
C148        O155   1.261       .  A
C148        O149   1.260       .  A
C148        C962   1.491       .  S
C150        O152   1.259       .  A
C150        O156   1.262       .  A
C150        C981   1.485       .  S
C154       C1061   1.479       .  S
In157       O159   2.247       .  S
In157       O160   2.243       .  S
In157       O168   2.253       .  S
In157       O162   2.227       .  S
In157       O164   2.248       .  S
In157       O165   2.254       .  S
In157       O166   2.246       .  S
In157       O169   2.242       .  S
C158        O164   1.258       .  A
C158        O166   1.260       .  A
C158        C946   1.488       .  S
O159        C167   1.258       .  A
O160        C167   1.260       .  A
C161        O168   1.263       .  A
C161        O162   1.258       .  A
C161       C1381   1.486       .  S
C163        O165   1.259       .  A
C163        O169   1.260       .  A
C163        C933   1.485       .  S
C167       C1042   1.483       .  S
In170       O172   2.238       .  S
In170       O173   2.243       .  S
In170       O181   2.259       .  S
In170       O175   2.235       .  S
In170       O177   2.251       .  S
In170       O178   2.240       .  S
In170       O179   2.230       .  S
In170       O182   2.236       .  S
C171        O177   1.263       .  A
C171        O179   1.257       .  A
C171        C949   1.491       .  S
O172        C180   1.260       .  A
O173        C180   1.259       .  A
C174        O181   1.259       .  A
C174        O175   1.259       .  A
C174       C1205   1.486       .  S
C176        O178   1.262       .  A
C176        O182   1.260       .  A
C176       C1074   1.486       .  S
C180        C914   1.480       .  S
In183       O185   2.237       .  S
In183       O186   2.228       .  S
In183       O194   2.240       .  S
In183       O188   2.236       .  S
In183       O190   2.248       .  S
In183       O191   2.245       .  S
In183       O192   2.235       .  S
In183       O195   2.243       .  S
C184        O190   1.261       .  A
C184        O192   1.258       .  A
C184        C898   1.476       .  S
O185        C193   1.262       .  A
O186        C193   1.260       .  A
C187        O194   1.260       .  A
C187        O188   1.260       .  A
C187        C882   1.476       .  S
C189        O191   1.260       .  A
C189        O195   1.258       .  A
C189       C1010   1.485       .  S
C193        C917   1.481       .  S
In196       O198   2.236       .  S
In196       O199   2.245       .  S
In196       O207   2.238       .  S
In196       O201   2.230       .  S
In196       O203   2.239       .  S
In196       O204   2.248       .  S
In196       O205   2.240       .  S
In196       O208   2.239       .  S
C197        O203   1.259       .  A
C197        O205   1.261       .  A
C197        C901   1.480       .  S
O198        C206   1.256       .  A
O199        C206   1.262       .  A
C200        O207   1.260       .  A
C200        O201   1.260       .  A
C200        C866   1.475       .  S
C202        O204   1.261       .  A
C202        O208   1.261       .  A
C202        C930   1.492       .  S
C206        C978   1.490       .  S
In209       O211   2.228       .  S
In209       O212   2.231       .  S
In209       O220   2.237       .  S
In209       O214   2.234       .  S
In209       O216   2.242       .  S
In209       O217   2.247       .  S
In209       O218   2.226       .  S
In209       O221   2.224       .  S
C210        O216   1.264       .  A
C210        O218   1.258       .  A
C210        C850   1.486       .  S
O211        C219   1.258       .  A
O212        C219   1.262       .  A
C213        O220   1.260       .  A
C213        O214   1.259       .  A
C213        C802   1.480       .  S
C215        O217   1.262       .  A
C215        O221   1.257       .  A
C215        C834   1.469       .  S
C219        C818   1.485       .  S
In222       O224   2.233       .  S
In222       O225   2.252       .  S
In222       O233   2.248       .  S
In222       O227   2.228       .  S
In222       O229   2.240       .  S
In222       O230   2.249       .  S
In222       O231   2.230       .  S
In222       O234   2.237       .  S
C223        O229   1.259       .  A
C223        O231   1.260       .  A
C223        C853   1.474       .  S
O224        C232   1.258       .  A
O225        C232   1.259       .  A
C226        O233   1.261       .  A
C226        O227   1.257       .  A
C226        C754   1.472       .  S
C228        O230   1.262       .  A
C228        O234   1.258       .  A
C228        C770   1.490       .  S
C232        C786   1.482       .  S
In235       O237   2.241       .  S
In235       O238   2.233       .  S
In235       O246   2.247       .  S
In235       O240   2.235       .  S
In235       O242   2.250       .  S
In235       O243   2.244       .  S
In235       O244   2.233       .  S
In235       O247   2.235       .  S
C236        O242   1.263       .  A
C236        O244   1.258       .  A
C236        C741   1.484       .  S
O237        C245   1.261       .  A
O238        C245   1.258       .  A
C239        O246   1.258       .  A
C239        O240   1.260       .  A
C239        C869   1.477       .  S
C241        O243   1.259       .  A
C241        O247   1.260       .  A
C241        C837   1.480       .  S
C245        C725   1.488       .  S
In248       O250   2.250       .  S
In248       O251   2.236       .  S
In248       O259   2.256       .  S
In248       O253   2.248       .  S
In248       O255   2.250       .  S
In248       O256   2.241       .  S
In248       O257   2.250       .  S
In248       O260   2.257       .  S
C249        O255   1.258       .  A
C249        O257   1.259       .  A
C249        C738   1.487       .  S
O250        C258   1.262       .  A
O251        C258   1.258       .  A
C252        O259   1.260       .  A
C252        O253   1.258       .  A
C252        C965   1.490       .  S
C254        O256   1.259       .  A
C254        O260   1.260       .  A
C254        C706   1.490       .  S
C258        C789   1.486       .  S
In261       O263   2.246       .  S
In261       O264   2.229       .  S
In261       O272   2.259       .  S
In261       O266   2.235       .  S
In261       O268   2.256       .  S
In261       O269   2.226       .  S
In261       O270   2.241       .  S
In261       O273   2.232       .  S
C262        O268   1.262       .  A
C262        O270   1.258       .  A
C262        C693   1.487       .  S
O263        C271   1.259       .  A
O264        C271   1.260       .  A
C265        O272   1.260       .  A
C265        O266   1.256       .  A
C265        C658   1.485       .  S
C267        O269   1.259       .  A
C267        O273   1.263       .  A
C267        C821   1.480       .  S
C271        C677   1.478       .  S
In274       O276   2.253       .  S
In274       O277   2.244       .  S
In274       O285   2.258       .  S
In274       O279   2.249       .  S
In274       O281   2.261       .  S
In274       O282   2.257       .  S
In274       O283   2.236       .  S
In274       O286   2.238       .  S
C275        O281   1.260       .  A
C275        O283   1.260       .  A
C275        C690   1.494       .  S
O276        C284   1.261       .  A
O277        C284   1.259       .  A
C278        O285   1.259       .  A
C278        O279   1.260       .  A
C278        C629   1.481       .  S
C280        O282   1.261       .  A
C280        O286   1.262       .  A
C280        C642   1.488       .  S
C284        C773   1.495       .  S
In287       O289   2.239       .  S
In287       O290   2.249       .  S
In287       O298   2.241       .  S
In287       O292   2.246       .  S
In287       O294   2.248       .  S
In287       O295   2.246       .  S
In287       O296   2.240       .  S
In287       O299   2.249       .  S
C288        O294   1.261       .  A
C288        O296   1.258       .  A
C288        C610   1.487       .  S
O289        C297   1.261       .  A
O290        C297   1.261       .  A
C291        O298   1.260       .  A
C291        O292   1.258       .  A
C291        C885   1.483       .  S
C293        O295   1.261       .  A
C293        O299   1.257       .  A
C293        C722   1.492       .  S
C297        C674   1.482       .  S
In300       O302   2.251       .  S
In300       O303   2.246       .  S
In300       O311   2.261       .  S
In300       O305   2.244       .  S
In300       O307   2.248       .  S
In300       O308   2.239       .  S
In300       O309   2.238       .  S
In300       O312   2.246       .  S
C301        O307   1.261       .  A
C301        O309   1.260       .  A
C301        C613   1.484       .  S
O302        C310   1.260       .  A
O303        C310   1.259       .  A
C304        O311   1.260       .  A
C304        O305   1.258       .  A
C304        C994   1.488       .  S
C306        O308   1.261       .  A
C306        O312   1.262       .  A
C306        C645   1.488       .  S
C310        C709   1.484       .  S
In313       O315   2.231       .  S
In313       O316   2.240       .  S
In313       O324   2.240       .  S
In313       O318   2.239       .  S
In313       O320   2.245       .  S
In313       O321   2.243       .  S
In313       O322   2.248       .  S
In313       O325   2.240       .  S
C314        O320   1.258       .  A
C314        O322   1.261       .  A
C314        C594   1.494       .  S
O315        C323   1.258       .  A
O316        C323   1.261       .  A
C317        O324   1.258       .  A
C317        O318   1.260       .  A
C317        C757   1.481       .  S
C319        O321   1.257       .  A
C319        O325   1.261       .  A
C319        C562   1.489       .  S
C323        C581   1.487       .  S
In326       O328   2.245       .  S
In326       O329   2.248       .  S
In326       O337   2.246       .  S
In326       O331   2.251       .  S
In326       O333   2.249       .  S
In326       O334   2.250       .  S
In326       O335   2.244       .  S
In326       O338   2.239       .  S
C327        O333   1.263       .  A
C327        O335   1.258       .  A
C327        C597   1.492       .  S
O328        C336   1.261       .  A
O329        C336   1.260       .  A
C330        O337   1.258       .  A
C330        O331   1.262       .  A
C330        C626   1.494       .  S
C332        O334   1.263       .  A
C332        O338   1.259       .  A
C332        C549   1.487       .  S
C336        C533   1.489       .  S
In339       O341   2.246       .  S
In339       O342   2.231       .  S
In339       O350   2.259       .  S
In339       O344   2.222       .  S
In339       O346   2.255       .  S
In339       O347   2.250       .  S
In339       O348   2.257       .  S
In339       O351   2.237       .  S
C340        O346   1.260       .  A
C340        O348   1.258       .  A
C340        C517   1.488       .  S
O341        C349   1.262       .  A
O342        C349   1.257       .  A
C343        O350   1.262       .  A
C343        O344   1.258       .  A
C343       C1122   1.483       .  S
C345        O347   1.260       .  A
C345        O351   1.257       .  A
C345        C546   1.485       .  S
C349        C501   1.490       .  S
In352       O354   2.237       .  S
In352       O355   2.244       .  S
In352       O363   2.258       .  S
In352       O357   2.233       .  S
In352       O359   2.245       .  S
In352       O360   2.248       .  S
In352       O361   2.248       .  S
In352       O364   2.237       .  S
C353        O359   1.261       .  A
C353        O361   1.261       .  A
C353        C514   1.491       .  S
O354        C362   1.258       .  A
O355        C362   1.263       .  A
C356        O363   1.261       .  A
C356        O357   1.258       .  A
C356       C1253   1.485       .  S
C358        O360   1.263       .  A
C358        O364   1.257       .  A
C358        C482   1.487       .  S
C362        C578   1.486       .  S
In365       O367   2.250       .  S
In365       O368   2.252       .  S
In365       O376   2.251       .  S
In365       O370   2.236       .  S
In365       O372   2.242       .  S
In365       O373   2.239       .  S
In365       O374   2.247       .  S
In365       O377   2.251       .  S
C366        O372   1.258       .  A
C366        O374   1.260       .  A
C366        C469   1.485       .  S
O367        C375   1.261       .  A
O368        C375   1.259       .  A
C369        O376   1.259       .  A
C369        O370   1.260       .  A
C369        C661   1.491       .  S
C371        O373   1.262       .  A
C371        O377   1.259       .  A
C371        C530   1.487       .  S
C375        C450   1.496       .  S
In378       O380   2.231       .  S
In378       O381   2.253       .  S
In378       O389   2.239       .  S
In378       O383   2.232       .  S
In378       O385   2.252       .  S
In378       O386   2.238       .  S
In378       O387   2.233       .  S
In378       O390   2.232       .  S
C379        O385   1.262       .  A
C379        O387   1.258       .  A
C379        C466   1.479       .  S
O380        C388   1.256       .  A
O381        C388   1.262       .  A
C382        O389   1.261       .  A
C382        O383   1.260       .  A
C382        C805   1.473       .  S
C384        O386   1.261       .  A
C384        O390   1.262       .  A
C384        C434   1.487       .  S
C388        C565   1.490       .  S
In391       O393   2.244       .  S
In391       O394   2.230       .  S
In391       O402   2.240       .  S
In391       O396   2.242       .  S
In391       O398   2.250       .  S
In391       O399   2.240       .  S
In391       O400   2.240       .  S
In391       O403   2.241       .  S
C392        O398   1.260       .  A
C392        O400   1.257       .  A
C392        C418   1.485       .  S
O393        C401   1.262       .  A
O394        C401   1.258       .  A
C395        O402   1.258       .  A
C395        O396   1.260       .  A
C395       C1285   1.481       .  S
C397        O399   1.258       .  A
C397        O403   1.260       .  A
C397        C437   1.476       .  S
C401        C485   1.487       .  S
In404       O406   2.248       .  S
In404       O407   2.248       .  S
In404       O415   2.255       .  S
In404       O409   2.241       .  S
In404       O411   2.256       .  S
In404       O412   2.237       .  S
In404       O413   2.237       .  S
In404       O416   2.258       .  S
C405        O411   1.260       .  A
C405        O413   1.259       .  A
C405        C421   1.483       .  S
O406        C414   1.261       .  A
O407        C414   1.259       .  A
C408        O415   1.261       .  A
C408        O409   1.258       .  A
C408       C1141   1.487       .  S
C410        O412   1.260       .  A
C410        O416   1.259       .  A
C410        C498   1.492       .  S
C414        C453   1.483       .  S
C417        C418   1.406       .  A
C417        C422   1.408       .  A
C417        H424   1.083       .  S
C418        C419   1.421       .  A
C419        C420   1.405       .  A
C419        C426   1.521       .  S
C420        C421   1.403       .  A
C420        H425   1.083       .  S
C421        C422   1.418       .  A
C422        C423   1.519       .  S
C423        F427   1.385       .  S
C423        F428   1.384       .  S
C423        F429   1.383       .  S
C426        F430   1.383       .  S
C426        F431   1.384       .  S
C426        F432   1.385       .  S
C433        C434   1.407       .  A
C433        C438   1.405       .  A
C433        H440   1.082       .  S
C434        C435   1.422       .  A
C435        C436   1.406       .  A
C435        C442   1.520       .  S
C436        C437   1.402       .  A
C436        H441   1.083       .  S
C437        C438   1.416       .  A
C438        C439   1.521       .  S
C439        F443   1.385       .  S
C439        F444   1.383       .  S
C439        F445   1.384       .  S
C442        F446   1.384       .  S
C442        F447   1.383       .  S
C442        F448   1.385       .  S
C449        C450   1.409       .  A
C449        C454   1.408       .  A
C449        H456   1.082       .  S
C450        C451   1.425       .  A
C451        C452   1.409       .  A
C451        C458   1.520       .  S
C452        C453   1.401       .  A
C452        H457   1.083       .  S
C453        C454   1.417       .  A
C454        C455   1.521       .  S
C455        F459   1.385       .  S
C455        F460   1.384       .  S
C455        F461   1.383       .  S
C458        F462   1.383       .  S
C458        F463   1.383       .  S
C458        F464   1.385       .  S
C465        C466   1.402       .  A
C465        C470   1.408       .  A
C465        H472   1.083       .  S
C466        C467   1.418       .  A
C467        C468   1.406       .  A
C467        C474   1.521       .  S
C468        C469   1.405       .  A
C468        H473   1.083       .  S
C469        C470   1.421       .  A
C470        C471   1.520       .  S
C471        F475   1.385       .  S
C471        F476   1.382       .  S
C471        F477   1.384       .  S
C474        F478   1.384       .  S
C474        F479   1.383       .  S
C474        F480   1.385       .  S
C481        C482   1.404       .  A
C481        C486   1.406       .  A
C481        H488   1.082       .  S
C482        C483   1.421       .  A
C483        C484   1.407       .  A
C483        C490   1.520       .  S
C484        C485   1.405       .  A
C484        H489   1.083       .  S
C485        C486   1.422       .  A
C486        C487   1.522       .  S
C487        F491   1.385       .  S
C487        F492   1.384       .  S
C487        F493   1.383       .  S
C490        F494   1.383       .  S
C490        F495   1.383       .  S
C490        F496   1.385       .  S
C497        C498   1.406       .  A
C497        C502   1.405       .  A
C497        H504   1.082       .  S
C498        C499   1.422       .  A
C499        C500   1.408       .  A
C499        C506   1.519       .  S
C500        C501   1.406       .  A
C500        H505   1.082       .  S
C501        C502   1.422       .  A
C502        C503   1.522       .  S
C503        F507   1.385       .  S
C503        F508   1.383       .  S
C503        F509   1.384       .  S
C506        F510   1.382       .  S
C506        F511   1.383       .  S
C506        F512   1.386       .  S
C513        C514   1.407       .  A
C513        C518   1.409       .  A
C513        H520   1.083       .  S
C514        C515   1.421       .  A
C515        C516   1.409       .  A
C515        C522   1.520       .  S
C516        C517   1.404       .  A
C516        H521   1.083       .  S
C517        C518   1.419       .  A
C518        C519   1.520       .  S
C519        F523   1.385       .  S
C519        F524   1.383       .  S
C519        F525   1.384       .  S
C522        F526   1.384       .  S
C522        F527   1.383       .  S
C522        F528   1.384       .  S
C529        C530   1.404       .  A
C529        C534   1.405   1_655  A
C529        H536   1.082       .  S
C530        C531   1.420       .  A
C531        C532   1.409   1_655  A
C531        C538   1.520       .  S
C532        C533   1.407       .  A
C532        H537   1.083       .  S
C533        C534   1.421       .  A
C534        C535   1.520       .  S
C535        F539   1.385       .  S
C535        F540   1.384       .  S
C535        F541   1.383       .  S
C538        F542   1.383       .  S
C538        F543   1.384       .  S
C538        F544   1.385       .  S
C545        C546   1.404       .  A
C545        C550   1.406       .  A
C545        H552   1.083       .  S
C546        C547   1.420       .  A
C547        C548   1.407       .  A
C547        C554   1.520       .  S
C548        C549   1.405       .  A
C548        H553   1.083       .  S
C549        C550   1.421       .  A
C550        C551   1.520       .  S
C551        F555   1.385       .  S
C551        F556   1.382       .  S
C551        F557   1.383       .  S
C554        F558   1.383       .  S
C554        F559   1.384       .  S
C554        F560   1.385       .  S
C561        C562   1.404       .  A
C561        C566   1.405   1_455  A
C561        H568   1.082       .  S
C562        C563   1.422       .  A
C563        C564   1.408   1_455  A
C563        C570   1.521       .  S
C564        C565   1.406       .  A
C564        H569   1.082       .  S
C565        C566   1.423       .  A
C566        C567   1.521       .  S
C567        F571   1.385       .  S
C567        F572   1.383       .  S
C567        F573   1.383       .  S
C570        F574   1.384       .  S
C570        F575   1.383       .  S
C570        F576   1.385       .  S
C577        C578   1.404       .  A
C577        C582   1.406       .  A
C577        H584   1.083       .  S
C578        C579   1.420       .  A
C579        C580   1.406       .  A
C579        C586   1.521       .  S
C580        C581   1.406       .  A
C580        H585   1.082       .  S
C581        C582   1.421       .  A
C582        C583   1.521       .  S
C583        F587   1.384       .  S
C583        F588   1.384       .  S
C583        F589   1.383       .  S
C586        F590   1.383       .  S
C586        F591   1.383       .  S
C586        F592   1.385       .  S
C593        C594   1.406       .  A
C593        C598   1.408       .  A
C593        H600   1.082       .  S
C594        C595   1.423       .  A
C595        C596   1.408       .  A
C595        C602   1.521       .  S
C596        C597   1.405       .  A
C596        H601   1.082       .  S
C597        C598   1.422       .  A
C598        C599   1.521       .  S
C599        F603   1.385       .  S
C599        F604   1.383       .  S
C599        F605   1.383       .  S
C602        F606   1.383       .  S
C602        F607   1.383       .  S
C602        F608   1.385       .  S
C609        C610   1.406       .  A
C609        C614   1.408       .  A
C609        H616   1.083       .  S
C610        C611   1.421       .  A
C611        C612   1.406       .  A
C611        C618   1.521       .  S
C612        C613   1.404       .  A
C612        H617   1.083       .  S
C613        C614   1.419       .  A
C614        C615   1.520       .  S
C615        F619   1.384   1_545  S
C615        F620   1.383       .  S
C615        F621   1.384       .  S
C618        F622   1.384       .  S
C618        F623   1.383       .  S
C618        F624   1.385       .  S
C625        C626   1.408       .  A
C625        C630   1.408       .  A
C625        H632   1.082       .  S
C626        C627   1.425   1_545  A
C627        C628   1.408       .  A
C627        C634   1.520       .  S
C628        C629   1.400       .  A
C628        H633   1.083       .  S
C629        C630   1.416   1_565  A
C630        C631   1.520       .  S
C631        F635   1.385       .  S
C631        F636   1.382       .  S
C631        F637   1.383       .  S
C634        F638   1.383       .  S
C634        F639   1.382       .  S
C634        F640   1.385       .  S
C641        C642   1.404   1_545  A
C641        C646   1.406       .  A
C641        H648   1.083       .  S
C642        C643   1.420       .  A
C643        C644   1.409       .  A
C643        C650   1.520       .  S
C644        C645   1.406   1_565  A
C644        H649   1.083       .  S
C645        C646   1.420       .  A
C646        C647   1.521       .  S
C647        F651   1.385       .  S
C647        F652   1.383       .  S
C647        F653   1.384       .  S
C650        F654   1.383       .  S
C650        F655   1.383       .  S
C650        F656   1.385       .  S
C657        C658   1.404       .  A
C657        C662   1.409       .  A
C657        H664   1.083       .  S
C658        C659   1.419   1_565  A
C659        C660   1.404       .  A
C659        C666   1.522       .  S
C660        C661   1.406       .  A
C660        H665   1.082       .  S
C661        C662   1.423   1_545  A
C662        C663   1.520       .  S
C663        F667   1.385       .  S
C663        F668   1.383       .  S
C663        F669   1.384       .  S
C666        F670   1.383       .  S
C666        F671   1.384       .  S
C666        F672   1.385       .  S
C673        C674   1.405   1_565  A
C673        C678   1.407       .  A
C673        H680   1.083       .  S
C674        C675   1.419       .  A
C675        C676   1.404       .  A
C675        C682   1.519       .  S
C676        C677   1.402   1_545  A
C676        H681   1.083       .  S
C677        C678   1.418       .  A
C678        C679   1.521       .  S
C679        F683   1.385       .  S
C679        F684   1.384       .  S
C679        F685   1.383       .  S
C682        F686   1.383       .  S
C682        F687   1.382       .  S
C682        F688   1.385       .  S
C689        C690   1.407       .  A
C689        C694   1.406       .  A
C689        H696   1.082       .  S
C690        C691   1.423       .  A
C691        C692   1.410       .  A
C691        C698   1.520       .  S
C692        C693   1.405       .  A
C692        H697   1.083       .  S
C693        C694   1.419       .  A
C694        C695   1.521       .  S
C695        F699   1.385       .  S
C695        F700   1.384       .  S
C695        F701   1.383       .  S
C698        F702   1.383       .  S
C698        F703   1.383       .  S
C698        F704   1.385       .  S
C705        C706   1.406       .  A
C705        C710   1.406       .  A
C705        H712   1.082       .  S
C706        C707   1.420       .  A
C707        C708   1.410       .  A
C707        C714   1.519       .  S
C708        C709   1.404       .  A
C708        H713   1.083       .  S
C709        C710   1.419       .  A
C710        C711   1.521       .  S
C711        F715   1.385       .  S
C711        F716   1.384       .  S
C711        F717   1.383       .  S
C714        F718   1.382       .  S
C714        F719   1.384       .  S
C714        F720   1.385       .  S
C721        C722   1.407       .  A
C721        C726   1.406       .  A
C721        H728   1.082       .  S
C722        C723   1.423       .  A
C723        C724   1.407       .  A
C723        C730   1.521       .  S
C724        C725   1.405       .  A
C724        H729   1.082       .  S
C725        C726   1.420       .  A
C726        C727   1.521       .  S
C727        F731   1.385       .  S
C727        F732   1.383       .  S
C727        F733   1.384       .  S
C730        F734   1.383       .  S
C730        F735   1.383       .  S
C730        F736   1.385       .  S
C737        C738   1.405       .  A
C737        C742   1.407       .  A
C737        H744   1.083       .  S
C738        C739   1.421       .  A
C739        C740   1.407       .  A
C739        C746   1.520       .  S
C740        C741   1.403       .  A
C740        H745   1.083       .  S
C741        C742   1.420       .  A
C742        C743   1.521       .  S
C743        F747   1.385       .  S
C743        F748   1.382       .  S
C743        F749   1.384       .  S
C746        F750   1.383       .  S
C746        F751   1.383       .  S
C746        F752   1.385       .  S
C753        C754   1.400       .  A
C753        C758   1.406       .  A
C753        H760   1.083       .  S
C754        C755   1.416       .  A
C755        C756   1.404       .  A
C755        C762   1.521       .  S
C756        C757   1.405       .  A
C756        H761   1.083       .  S
C757        C758   1.420       .  A
C758        C759   1.519       .  S
C759        F763   1.385       .  S
C759        F764   1.383       .  S
C759        F765   1.384       .  S
C762        F766   1.382       .  S
C762        F767   1.384       .  S
C762        F768   1.385       .  S
C769        C770   1.405       .  A
C769        C774   1.408       .  A
C769        H776   1.082       .  S
C770        C771   1.420       .  A
C771        C772   1.409       .  A
C771        C778   1.521       .  S
C772        C773   1.408       .  A
C772        H777   1.082       .  S
C773        C774   1.423       .  A
C774        C775   1.521       .  S
C775        F779   1.385       .  S
C775        F780   1.383       .  S
C775        F781   1.383       .  S
C778        F782   1.383       .  S
C778        F783   1.384       .  S
C778        F784   1.384       .  S
C785        C786   1.403       .  A
C785        C790   1.405       .  A
C785        H792   1.083       .  S
C786        C787   1.419       .  A
C787        C788   1.407       .  A
C787        C794   1.520       .  S
C788        C789   1.406       .  A
C788        H793   1.083       .  S
C789        C790   1.422       .  A
C790        C791   1.521       .  S
C791        F795   1.385       .  S
C791        F796   1.384       .  S
C791        F797   1.382       .  S
C794        F798   1.384       .  S
C794        F799   1.383       .  S
C794        F800   1.385       .  S
C801        C802   1.405       .  A
C801        C806   1.404       .  A
C801        H808   1.083       .  S
C802        C803   1.420       .  A
C803        C804   1.405       .  A
C803        C810   1.520       .  S
C804        C805   1.401       .  A
C804        H809   1.083       .  S
C805        C806   1.414       .  A
C806        C807   1.518       .  S
C807        F811   1.385       .  S
C807        F812   1.382       .  S
C807        F813   1.383       .  S
C810        F814   1.382       .  S
C810        F815   1.384       .  S
C810        F816   1.385       .  S
C817        C818   1.405       .  A
C817        C822   1.403       .  A
C817        H824   1.082       .  S
C818        C819   1.422       .  A
C819        C820   1.405       .  A
C819        C826   1.521       .  S
C820        C821   1.403       .  A
C820        H825   1.083       .  S
C821        C822   1.420       .  A
C822        C823   1.522       .  S
C823        F827   1.385       .  S
C823        F828   1.383       .  S
C823        F829   1.384       .  S
C826        F830   1.383       .  S
C826        F831   1.383       .  S
C826        F832   1.385       .  S
C833        C834   1.400       .  A
C833        C838   1.407       .  A
C833        H840   1.083       .  S
C834        C835   1.415       .  A
C835        C836   1.402       .  A
C835        C842   1.521       .  S
C836        C837   1.404       .  A
C836        H841   1.083       .  S
C837        C838   1.420       .  A
C838        C839   1.518       .  S
C839        F843   1.385       .  S
C839        F844   1.383       .  S
C839        F845   1.383       .  S
C842        F846   1.383       .  S
C842        F847   1.383       .  S
C842        F848   1.385       .  S
C849        C850   1.407       .  A
C849        C854   1.406       .  A
C849        H856   1.082       .  S
C850        C851   1.424       .  A
C851        C852   1.404       .  A
C851        C858   1.521       .  S
C852        C853   1.400       .  A
C852        H857   1.083       .  S
C853        C854   1.416       .  A
C854        C855   1.520       .  S
C855        F859   1.385       .  S
C855        F860   1.384       .  S
C855        F861   1.382       .  S
C858        F862   1.383       .  S
C858        F863   1.383       .  S
C858        F864   1.385       .  S
C865        C866   1.403       .  A
C865        C870   1.405       .  A
C865        H872   1.083       .  S
C866        C867   1.416       .  A
C867        C868   1.405       .  A
C867        C874   1.519       .  S
C868        C869   1.403       .  A
C868        H873   1.083       .  S
C869        C870   1.418       .  A
C870        C871   1.519       .  S
C871        F875   1.385       .  S
C871        F876   1.383       .  S
C871        F877   1.383       .  S
C874        F878   1.383       .  S
C874        F879   1.383       .  S
C874        F880   1.384       .  S
C881        C882   1.403   1_545  A
C881        C886   1.407       .  A
C881        H888   1.083       .  S
C882        C883   1.415       .  A
C883        C884   1.404   1_565  A
C883        C890   1.519       .  S
C884        C885   1.405       .  A
C884        H889   1.083       .  S
C885        C886   1.421       .  A
C886        C887   1.520       .  S
C887        F891   1.385       .  S
C887        F892   1.383       .  S
C887        F893   1.383       .  S
C890        F894   1.384       .  S
C890        F895   1.383       .  S
C890        F896   1.384       .  S
C897        C898   1.402       .  A
C897        C902   1.407       .  A
C897        H904   1.083       .  S
C898        C899   1.417       .  A
C899        C900   1.405       .  A
C899        C906   1.520       .  S
C900        C901   1.404       .  A
C900        H905   1.083       .  S
C901        C902   1.419       .  A
C902        C903   1.519       .  S
C903        F907   1.385       .  S
C903        F908   1.384       .  S
C903        F909   1.382       .  S
C906        F910   1.382       .  S
C906        F911   1.384       .  S
C906        F912   1.385       .  S
C913        C914   1.403       .  A
C913        C918   1.406       .  A
C913        H920   1.083       .  S
C914        C915   1.419       .  A
C915        C916   1.406       .  A
C915        C922   1.520       .  S
C916        C917   1.404       .  A
C916        H921   1.083       .  S
C917        C918   1.419       .  A
C918        C919   1.521       .  S
C919        F923   1.384       .  S
C919        F924   1.384       .  S
C919        F925   1.383       .  S
C922        F926   1.384       .  S
C922        F927   1.383       .  S
C922        F928   1.385       .  S
C929        C930   1.408       .  A
C929        C934   1.407       .  A
C929        H936   1.082       .  S
C930        C931   1.423       .  A
C931        C932   1.407       .  A
C931        C938   1.520       .  S
C932        C933   1.403       .  A
C932        H937   1.083       .  S
C933        C934   1.418       .  A
C934        C935   1.521       .  S
C935        F939   1.385       .  S
C935        F940   1.383       .  S
C935        F941   1.384       .  S
C938        F942   1.383       .  S
C938        F943   1.383       .  S
C938        F944   1.385       .  S
C945        C946   1.404       .  A
C945        C950   1.407       .  A
C945        H952   1.082       .  S
C946        C947   1.420       .  A
C947        C948   1.408       .  A
C947        C954   1.520       .  S
C948        C949   1.406       .  A
C948        H953   1.082       .  S
C949        C950   1.424       .  A
C950        C951   1.522       .  S
C951        F955   1.385       .  S
C951        F956   1.384       .  S
C951        F957   1.384       .  S
C954        F958   1.384       .  S
C954        F959   1.383       .  S
C954        F960   1.385       .  S
C961        C962   1.407       .  A
C961        C966   1.409       .  A
C961        H968   1.083       .  S
C962        C963   1.421       .  A
C963        C964   1.409       .  A
C963        C970   1.520       .  S
C964        C965   1.405       .  A
C964        H969   1.083       .  S
C965        C966   1.420       .  A
C966        C967   1.520       .  S
C967        F971   1.385       .  S
C967        F972   1.384       .  S
C967        F973   1.383       .  S
C970        F974   1.384       .  S
C970        F975   1.383       .  S
C970        F976   1.384       .  S
C977        C978   1.405       .  A
C977        C982   1.405   1_655  A
C977        H984   1.082       .  S
C978        C979   1.424       .  A
C979        C980   1.408   1_655  A
C979        C986   1.521       .  S
C980        C981   1.403       .  A
C980        H985   1.083       .  S
C981        C982   1.420       .  A
C982        C983   1.521       .  S
C983        F987   1.385       .  S
C983        F988   1.383       .  S
C983        F989   1.383       .  S
C986        F990   1.384       .  S
C986        F991   1.383       .  S
C986        F992   1.385       .  S
C993        C994   1.407       .  A
C993        C998   1.409   1_545  A
C993       H1000   1.083       .  S
C994        C995   1.421       .  A
C995        C996   1.407       .  A
C995       C1002   1.519       .  S
C996        C997   1.402       .  A
C996       H1001   1.083       .  S
C997        C998   1.416   1_545  A
C998        C999   1.519       .  S
C999       F1003   1.384       .  S
C999       F1004   1.382       .  S
C999       F1005   1.384       .  S
C1002      F1006   1.382       .  S
C1002      F1007   1.384       .  S
C1002      F1008   1.385       .  S
C1009      C1010   1.404       .  A
C1009      C1014   1.407   1_655  A
C1009      H1016   1.083       .  S
C1010      C1011   1.420       .  A
C1011      C1012   1.406   1_655  A
C1011      C1018   1.522       .  S
C1012      C1013   1.406       .  A
C1012      H1017   1.082       .  S
C1013      C1014   1.420       .  A
C1014      C1015   1.519       .  S
C1015      F1019   1.385   1_565  S
C1015      F1020   1.383       .  S
C1015      F1021   1.384   1_565  S
C1018      F1022   1.384       .  S
C1018      F1023   1.383       .  S
C1018      F1024   1.385       .  S
C1025      C1026   1.407       .  A
C1025      C1030   1.409       .  A
C1025      H1032   1.083       .  S
C1026      C1027   1.422       .  A
C1027      C1028   1.406       .  A
C1027      C1034   1.521       .  S
C1028      C1029   1.403       .  A
C1028      H1033   1.083       .  S
C1029      C1030   1.418       .  A
C1030      C1031   1.519       .  S
C1031      F1035   1.385       .  S
C1031      F1036   1.383       .  S
C1031      F1037   1.384       .  S
C1034      F1038   1.383       .  S
C1034      F1039   1.383       .  S
C1034      F1040   1.385       .  S
C1041      C1042   1.402       .  A
C1041      C1046   1.406       .  A
C1041      H1048   1.083       .  S
C1042      C1043   1.417       .  A
C1043      C1044   1.408       .  A
C1043      C1050   1.519       .  S
C1044      C1045   1.408       .  A
C1044      H1049   1.083       .  S
C1045      C1046   1.425       .  A
C1046      C1047   1.521       .  S
C1047      F1051   1.385       .  S
C1047      F1052   1.383       .  S
C1047      F1053   1.383       .  S
C1050      F1054   1.384       .  S
C1050      F1055   1.382       .  S
C1050      F1056   1.385       .  S
C1057      C1058   1.407       .  A
C1057      C1062   1.407       .  A
C1057      H1064   1.083       .  S
C1058      C1059   1.422       .  A
C1059      C1060   1.405       .  A
C1059      C1066   1.521       .  S
C1060      C1061   1.401       .  A
C1060      H1065   1.083       .  S
C1061      C1062   1.417       .  A
C1062      C1063   1.520       .  S
C1063      F1067   1.385       .  S
C1063      F1068   1.384       .  S
C1063      F1069   1.383       .  S
C1066      F1070   1.383       .  S
C1066      F1071   1.382       .  S
C1066      F1072   1.385       .  S
C1073      C1074   1.404       .  A
C1073      C1078   1.407       .  A
C1073      H1080   1.082       .  S
C1074      C1075   1.419       .  A
C1075      C1076   1.407       .  A
C1075      C1082   1.520       .  S
C1076      C1077   1.406       .  A
C1076      H1081   1.083       .  S
C1077      C1078   1.423       .  A
C1078      C1079   1.522       .  S
C1079      F1083   1.385       .  S
C1079      F1084   1.384       .  S
C1079      F1085   1.384       .  S
C1082      F1086   1.383       .  S
C1082      F1087   1.383       .  S
C1082      F1088   1.384       .  S
C1089      C1090   1.405       .  A
C1089      C1094   1.410       .  A
C1089      H1096   1.083       .  S
C1090      C1091   1.419       .  A
C1091      C1092   1.405       .  A
C1091      C1098   1.521       .  S
C1092      C1093   1.404       .  A
C1092      H1097   1.083       .  S
C1093      C1094   1.422       .  A
C1094      C1095   1.520       .  S
C1095      F1099   1.385       .  S
C1095      F1100   1.383       .  S
C1095      F1101   1.384       .  S
C1098      F1102   1.383       .  S
C1098      F1103   1.384       .  S
C1098      F1104   1.385       .  S
C1105      C1106   1.407       .  A
C1105      C1110   1.408       .  A
C1105      H1112   1.082       .  S
C1106      C1107   1.423       .  A
C1107      C1108   1.407       .  A
C1107      C1114   1.522       .  S
C1108      C1109   1.405       .  A
C1108      H1113   1.082       .  S
C1109      C1110   1.420       .  A
C1110      C1111   1.520       .  S
C1111      F1115   1.385       .  S
C1111      F1116   1.383       .  S
C1111      F1117   1.383       .  S
C1114      F1118   1.384       .  S
C1114      F1119   1.383       .  S
C1114      F1120   1.385       .  S
C1121      C1122   1.406       .  A
C1121      C1126   1.410   1_545  A
C1121      H1128   1.083   1_545  S
C1122      C1123   1.420       .  A
C1123      C1124   1.402       .  A
C1123      C1130   1.521       .  S
C1124      C1125   1.402   1_545  A
C1124      H1129   1.083       .  S
C1125      C1126   1.419       .  A
C1126      C1127   1.520       .  S
C1127      F1131   1.384       .  S
C1127      F1132   1.384       .  S
C1127      F1133   1.383       .  S
C1130      F1134   1.383       .  S
C1130      F1135   1.383       .  S
C1130      F1136   1.385       .  S
C1137      C1138   1.403   1_545  A
C1137      C1142   1.406       .  A
C1137      H1144   1.083       .  S
C1138      C1139   1.418       .  A
C1139      C1140   1.408       .  A
C1139      C1146   1.519       .  S
C1140      C1141   1.406   1_565  A
C1140      H1145   1.083       .  S
C1141      C1142   1.421       .  A
C1142      C1143   1.520       .  S
C1143      F1147   1.385       .  S
C1143      F1148   1.384       .  S
C1143      F1149   1.383       .  S
C1146      F1150   1.383       .  S
C1146      F1151   1.383       .  S
C1146      F1152   1.385       .  S
C1153      C1154   1.407       .  A
C1153      C1158   1.407   1_655  A
C1153      H1160   1.082       .  S
C1154      C1155   1.422       .  A
C1155      C1156   1.402   1_655  A
C1155      C1162   1.522       .  S
C1156      C1157   1.402       .  A
C1156      H1161   1.083       .  S
C1157      C1158   1.417       .  A
C1158      C1159   1.520       .  S
C1159      F1163   1.385   1_565  S
C1159      F1164   1.383       .  S
C1159      F1165   1.384   1_565  S
C1162      F1166   1.383       .  S
C1162      F1167   1.383       .  S
C1162      F1168   1.386   1_655  S
C1169      C1170   1.403       .  A
C1169      C1174   1.401   1_545  A
C1169      H1176   1.083       .  S
C1170      C1171   1.419       .  A
C1171      C1172   1.411       .  A
C1171      C1178   1.519       .  S
C1172      C1173   1.405   1_545  A
C1172      H1177   1.083       .  S
C1173      C1174   1.417       .  A
C1174      C1175   1.521       .  S
C1175      F1179   1.385       .  S
C1175      F1180   1.384       .  S
C1175      F1181   1.383       .  S
C1178      F1182   1.384       .  S
C1178      F1183   1.383       .  S
C1178      F1184   1.385       .  S
C1185      C1186   1.405       .  A
C1185      C1190   1.402   1_544  A
C1185      H1192   1.083       .  S
C1186      C1187   1.420       .  A
C1187      C1188   1.409   1_554  A
C1187      C1194   1.517       .  S
C1188      C1189   1.401   1_545  A
C1188      H1193   1.083       .  S
C1189      C1190   1.415       .  A
C1190      C1191   1.521       .  S
C1191      F1195   1.385   1_556  S
C1191      F1196   1.383       .  S
C1191      F1197   1.382       .  S
C1194      F1198   1.383       .  S
C1194      F1199   1.382       .  S
C1194      F1200   1.385   1_554  S
C1201      C1202   1.406       .  A
C1201      C1206   1.410       .  A
C1201      H1208   1.083       .  S
C1202      C1203   1.421   1_545  A
C1203      C1204   1.405       .  A
C1203      C1210   1.522       .  S
C1204      C1205   1.403       .  A
C1204      H1209   1.083       .  S
C1205      C1206   1.419   1_565  A
C1206      C1207   1.519       .  S
C1207      F1211   1.385       .  S
C1207      F1212   1.383       .  S
C1207      F1213   1.383       .  S
C1210      F1214   1.383       .  S
C1210      F1215   1.384       .  S
C1210      F1216   1.385       .  S
C1217      C1218   1.404   1_556  A
C1217      C1222   1.407       .  A
C1217      H1224   1.083   1_556  S
C1218      C1219   1.421   1_545  A
C1219      C1220   1.409   1_554  A
C1219      C1226   1.521       .  S
C1220      C1221   1.406       .  A
C1220      H1225   1.083       .  S
C1221      C1222   1.421   1_565  A
C1222      C1223   1.520       .  S
C1223      F1227   1.385       .  S
C1223      F1228   1.383       .  S
C1223      F1229   1.383       .  S
C1226      F1230   1.383       .  S
C1226      F1231   1.383       .  S
C1226      F1232   1.385       .  S
C1233      C1234   1.407       .  A
C1233      C1238   1.410   1_655  A
C1233      H1240   1.082       .  S
C1234      C1235   1.423       .  A
C1235      C1236   1.405   1_655  A
C1235      C1242   1.522       .  S
C1236      C1237   1.405       .  A
C1236      H1241   1.082       .  S
C1237      C1238   1.422       .  A
C1238      C1239   1.521       .  S
C1239      F1243   1.385       .  S
C1239      F1244   1.383       .  S
C1239      F1245   1.384       .  S
C1242      F1246   1.383       .  S
C1242      F1247   1.383       .  S
C1242      F1248   1.385       .  S
C1249      C1250   1.402       .  A
C1249      C1254   1.406       .  A
C1249      H1256   1.083       .  S
C1250      C1251   1.418       .  A
C1251      C1252   1.408       .  A
C1251      C1258   1.520       .  S
C1252      C1253   1.406       .  A
C1252      H1257   1.083       .  S
C1253      C1254   1.420       .  A
C1254      C1255   1.520       .  S
C1255      F1259   1.385       .  S
C1255      F1260   1.384       .  S
C1255      F1261   1.383       .  S
C1258      F1262   1.384       .  S
C1258      F1263   1.382       .  S
C1258      F1264   1.384       .  S
C1265      C1266   1.404       .  A
C1265      C1270   1.406       .  A
C1265      H1272   1.082       .  S
C1266      C1267   1.419       .  A
C1267      C1268   1.408       .  A
C1267      C1274   1.520       .  S
C1268      C1269   1.407       .  A
C1268      H1273   1.083       .  S
C1269      C1270   1.424       .  A
C1270      C1271   1.522       .  S
C1271      F1275   1.385       .  S
C1271      F1276   1.384       .  S
C1271      F1277   1.383       .  S
C1274      F1278   1.383       .  S
C1274      F1279   1.384       .  S
C1274      F1280   1.384       .  S
C1281      C1282   1.402       .  A
C1281      C1286   1.405       .  A
C1281      H1288   1.083       .  S
C1282      C1283   1.419       .  A
C1283      C1284   1.406       .  A
C1283      C1290   1.520       .  S
C1284      C1285   1.404       .  A
C1284      H1289   1.083       .  S
C1285      C1286   1.420       .  A
C1286      C1287   1.520       .  S
C1287      F1291   1.385       .  S
C1287      F1292   1.383       .  S
C1287      F1293   1.384       .  S
C1290      F1294   1.382       .  S
C1290      F1295   1.384       .  S
C1290      F1296   1.385       .  S
C1297      C1298   1.407       .  A
C1297      C1302   1.408       .  A
C1297      H1304   1.082       .  S
C1298      C1299   1.422       .  A
C1299      C1300   1.407       .  A
C1299      C1306   1.521       .  S
C1300      C1301   1.406       .  A
C1300      H1305   1.082       .  S
C1301      C1302   1.422       .  A
C1302      C1303   1.521       .  S
C1303      F1307   1.385       .  S
C1303      F1308   1.383       .  S
C1303      F1309   1.383       .  S
C1306      F1310   1.383       .  S
C1306      F1311   1.383       .  S
C1306      F1312   1.385       .  S
C1313      C1314   1.402       .  A
C1313      C1318   1.408   1_655  A
C1313      H1320   1.083       .  S
C1314      C1315   1.416       .  A
C1315      C1316   1.402   1_655  A
C1315      C1322   1.521       .  S
C1316      C1317   1.403       .  A
C1316      H1321   1.083       .  S
C1317      C1318   1.421       .  A
C1318      C1319   1.519       .  S
C1319      F1323   1.383       .  S
C1319      F1324   1.385       .  S
C1319      F1325   1.384       .  S
C1322      F1326   1.382       .  S
C1322      F1327   1.384       .  S
C1322      F1328   1.385       .  S
C1329      C1330   1.403       .  A
C1329      C1334   1.405       .  A
C1329      H1336   1.083       .  S
C1330      C1331   1.421       .  A
C1331      C1332   1.411       .  A
C1331      C1338   1.520       .  S
C1332      C1333   1.405       .  A
C1332      H1337   1.083       .  S
C1333      C1334   1.419       .  A
C1334      C1335   1.521       .  S
C1335      F1339   1.385       .  S
C1335      F1340   1.384       .  S
C1335      F1341   1.382       .  S
C1338      F1342   1.384       .  S
C1338      F1343   1.383       .  S
C1338      F1344   1.385       .  S
C1345      C1346   1.407       .  A
C1345      C1350   1.408       .  A
C1345      H1352   1.082       .  S
C1346      C1347   1.423       .  A
C1347      C1348   1.406       .  A
C1347      C1354   1.521       .  S
C1348      C1349   1.404       .  A
C1348      H1353   1.082       .  S
C1349      C1350   1.421       .  A
C1350      C1351   1.522       .  S
C1351      F1355   1.385       .  S
C1351      F1356   1.383       .  S
C1351      F1357   1.384       .  S
C1354      F1358   1.383       .  S
C1354      F1359   1.384       .  S
C1354      F1360   1.385       .  S
C1361      C1362   1.403       .  A
C1361      C1366   1.406   1_554  A
C1361      H1368   1.083       .  S
C1362      C1363   1.418   1_554  A
C1363      C1364   1.404       .  A
C1363      C1370   1.521       .  S
C1364      C1365   1.407       .  A
C1364      H1369   1.082       .  S
C1365      C1366   1.422       .  A
C1366      C1367   1.520   1_556  S
C1367      F1371   1.385       .  S
C1367      F1372   1.384   1_554  S
C1367      F1373   1.382   1_554  S
C1370      F1374   1.384       .  S
C1370      F1375   1.382       .  S
C1370      F1376   1.385       .  S
C1377      C1378   1.401       .  A
C1377      C1382   1.403       .  A
C1377      H1384   1.083       .  S
C1378      C1379   1.416       .  A
C1379      C1380   1.409       .  A
C1379      C1386   1.519       .  S
C1380      C1381   1.407       .  A
C1380      H1385   1.083       .  S
C1381      C1382   1.422       .  A
C1382      C1383   1.522       .  S
C1383      F1387   1.385       .  S
C1383      F1388   1.384       .  S
C1383      F1389   1.383       .  S
C1386      F1390   1.384       .  S
C1386      F1391   1.382       .  S
C1386      F1392   1.385       .  S
C1393      C1394   1.408       .  A
C1393      C1398   1.407       .  A
C1393      H1400   1.082       .  S
C1394      C1395   1.423       .  A
C1395      C1396   1.408       .  A
C1395      C1402   1.520       .  S
C1396      C1397   1.404       .  A
C1396      H1401   1.082       .  S
C1397      C1398   1.420       .  A
C1398      C1399   1.521       .  S
C1399      F1403   1.384       .  S
C1399      F1404   1.384       .  S
C1399      F1405   1.383       .  S
C1402      F1406   1.383       .  S
C1402      F1407   1.383       .  S
C1402      F1408   1.385       .  S
C1409      C1410   1.407       .  A
C1409      C1414   1.406       .  A
C1409      H1416   1.082       .  S
C1410      C1411   1.422       .  A
C1411      C1412   1.406   1_556  A
C1411      C1418   1.520       .  S
C1412      C1413   1.402       .  A
C1412      H1417   1.083       .  S
C1413      C1414   1.418   1_554  A
C1414      C1415   1.521       .  S
C1415      F1419   1.385       .  S
C1415      F1420   1.383       .  S
C1415      F1421   1.383   1_556  S
C1418      F1422   1.383       .  S
C1418      F1423   1.383       .  S
C1418      F1424   1.385   1_556  S
C1425      C1426   1.404       .  A
C1425      C1430   1.403   1_655  A
C1425      H1432   1.082       .  S
C1426      C1427   1.422       .  A
C1427      C1428   1.411   1_655  A
C1427      C1434   1.521       .  S
C1428      C1429   1.407       .  A
C1428      H1433   1.083       .  S
C1429      C1430   1.421       .  A
C1430      C1431   1.522       .  S
C1431      F1435   1.385       .  S
C1431      F1436   1.383       .  S
C1431      F1437   1.384       .  S
C1434      F1438   1.383       .  S
C1434      F1439   1.385       .  S
C1434      F1440   1.384       .  S
