geometry optimzed in LAMMPS
_audit_creation_date              2020-12-01 
_audit_creation_method            'lammps2cif' 
_symmetry_space_group_name_H-M    'P1' 
_symmetry_Int_Tables_number       1 
_symmetry_cell_setting            triclinic 
loop_ 
_symmetry_equiv_pos_as_xyz 
  x,y,z 
_cell_length_a                    34.75975819 
_cell_length_b                    34.83351094022244 
_cell_length_c                    101.57988467969787 
_cell_angle_alpha                 89.64442149080921 
_cell_angle_beta                  90.10816471411894 
_cell_angle_gamma                 120.09817604067266 
loop_ 
_atom_site_label 
_atom_site_type_symbol 
_atom_site_fract_x 
_atom_site_fract_y 
_atom_site_fract_z 
_atom_site_charge 
O1          O  0.79917876  0.46341748  0.08471134    -0.74700
O2          O  0.68781263  0.46141951  0.08974919    -0.74700
O3          O  0.74636660  0.48192275  0.06967759    -0.74700
O4          O  0.73962061  0.44034678  0.10505450    -0.74800
O5          O  0.77531092  0.50974876  0.11241496    -0.74700
O6          O  0.78556255  0.55201328  0.07638898    -0.74700
O7          O  0.72615317  0.53159507  0.09641301    -0.74700
O8          O  0.83488664  0.53234818  0.09253670    -0.73500
Ni9        Ni  0.74184575  0.45917879  0.08711617     1.25400
Ni10       Ni  0.78162233  0.53380507  0.09472301     1.25400
C11         C  0.83552176  0.49916371  0.08753738     0.87500
C12         C  0.68911599  0.49715507  0.09359813     0.87500
C13         C  0.76796913  0.52349295  0.06706440     0.87500
C14         C  0.75619594  0.46770432  0.11461951     0.87700
O15         O  0.70289609  0.49148189  0.92532317    -0.74700
O16         O  0.81283249  0.49184502  0.91883767    -0.74700
O17         O  0.77433346  0.50627662  0.94000266    -0.74700
O18         O  0.74007472  0.47443964  0.90423390    -0.74800
O19         O  0.77280225  0.54556933  0.89829031    -0.74700
O20         O  0.80659905  0.57809625  0.93485378    -0.74700
O21         O  0.84449842  0.56339536  0.91339692    -0.74700
O22         O  0.73720104  0.56279920  0.91946972    -0.74700
Ni23       Ni  0.75639711  0.48843358  0.92227965     1.25400
Ni24       Ni  0.79156536  0.56495902  0.91629827     1.25400
C25         C  0.70247950  0.52783073  0.92343859     0.87500
C26         C  0.84695886  0.52835373  0.91506503     0.87500
C27         C  0.79512287  0.54696621  0.94348899     0.87500
C28         C  0.75001991  0.50412028  0.89533191     0.87700
O29         O  0.25665836  0.60102621  0.07764779    -0.74700
O30         O  0.36453586  0.59726987  0.08396091    -0.74700
O31         O  0.31077234  0.58337441  0.06298294    -0.74700
O32         O  0.31122311  0.61702381  0.09869306    -0.74800
O33         O  0.27029617  0.54613656  0.10471052    -0.74700
O34         O  0.27024343  0.51184048  0.06840908    -0.74700
O35         O  0.32315120  0.52628325  0.08990095    -0.74700
O36         O  0.21741171  0.52958107  0.08332687    -0.74700
Ni37       Ni  0.31232002  0.60223198  0.08065459     1.25400
Ni38       Ni  0.26901196  0.52597694  0.08682612     1.25400
C39         C  0.21914992  0.56506160  0.07915119     0.87500
C40         C  0.36123647  0.56061446  0.08792450     0.87500
C41         C  0.28973061  0.54251442  0.05965265     0.87500
C42         C  0.29047115  0.58765561  0.10761138     0.87700
O43         O  0.37894038  0.62242914  0.91931464    -0.74700
O44         O  0.27017339  0.62417552  0.91344629    -0.74700
O45         O  0.30697970  0.60451402  0.93399879    -0.74700
O46         O  0.34333814  0.64379511  0.89857419    -0.74800
O47         O  0.30952939  0.57382037  0.89166729    -0.74700
O48         O  0.27492389  0.53405124  0.92758262    -0.74700
O49         O  0.23786457  0.55375426  0.90694797    -0.74700
O50         O  0.34523908  0.55267962  0.91214820    -0.74700
Ni51       Ni  0.32603766  0.62632648  0.91651967     1.25400
Ni52       Ni  0.29066234  0.55115602  0.90933068     1.25400
C53         C  0.37944558  0.58658565  0.91681974     0.87500
C54         C  0.23576344  0.58853635  0.90947384     0.87500
C55         C  0.28578863  0.56300650  0.93674113     0.87500
C56         C  0.33296659  0.61563668  0.88926157     0.87700
O57         O  0.59643223  0.39712963  0.75169667    -0.74700
O58         O  0.59572794  0.28696065  0.75698505    -0.74700
O59         O  0.57643438  0.32556641  0.73681886    -0.74700
O60         O  0.61784894  0.36011418  0.77205699    -0.74800
O61         O  0.54818590  0.32847956  0.77939876    -0.74700
O62         O  0.50609138  0.29374486  0.74358703    -0.74700
O63         O  0.52584510  0.25608379  0.76416303    -0.74700
O64         O  0.52652534  0.36417508  0.75894251    -0.74700
Ni65       Ni  0.59917188  0.34353660  0.75420241     1.25400
Ni66       Ni  0.52425289  0.30939776  0.76181743     1.25400
C67         C  0.56066584  0.39806527  0.75414494     0.87500
C68         C  0.55985362  0.25298369  0.76115841     0.87500
C69         C  0.53478951  0.30488767  0.73424068     0.87500
C70         C  0.59032179  0.35103524  0.78154798     0.87700
O71         O  0.58702989  0.27710377  0.59310572    -0.74700
O72         O  0.57648989  0.38109136  0.58654527    -0.74700
O73         O  0.56484009  0.32789194  0.60767350    -0.74700
O74         O  0.60099630  0.33111282  0.57206359    -0.74800
O75         O  0.53071361  0.28719171  0.56593581    -0.74700
O76         O  0.49371108  0.28486187  0.60222300    -0.74700
O77         O  0.50601365  0.33690705  0.58061447    -0.74700
O78         O  0.51585379  0.23502880  0.58744317    -0.74700
Ni79       Ni  0.58484425  0.33095459  0.59002089     1.25400
Ni80       Ni  0.50909402  0.28463487  0.58380476     1.25400
C81         C  0.55224278  0.23874296  0.59159386     0.87500
C82         C  0.53895124  0.37579117  0.58259085     0.87500
C83         C  0.52388521  0.30518197  0.61101801     0.87500
C84         C  0.57250716  0.30907777  0.56313128     0.87700
O85         O  0.46679464  0.72173416  0.74468978    -0.74700
O86         O  0.46206671  0.82934318  0.74987402    -0.74700
O87         O  0.48046974  0.79117190  0.72935371    -0.74700
O88         O  0.44602989  0.75815868  0.76512068    -0.74800
O89         O  0.51695856  0.79296547  0.77137119    -0.74700
O90         O  0.55204290  0.82636833  0.73493354    -0.74700
O91         O  0.53329444  0.86326686  0.75584297    -0.74700
O92         O  0.53798366  0.75844908  0.75071882    -0.74700
Ni93       Ni  0.46125346  0.77392634  0.74706841     1.25400
Ni94       Ni  0.53752837  0.81166403  0.75344460     1.25400
C95         C  0.50402313  0.72310524  0.74667313     0.87500
C96         C  0.49752477  0.86418299  0.75378918     0.87500
C97         C  0.52153035  0.81272837  0.72606825     0.87500
C98         C  0.47532539  0.76914709  0.77415917     0.87700
O99         O  0.45513118  0.82124344  0.58546545    -0.74700
O100        O  0.44893466  0.70858690  0.58014471    -0.74700
O101        O  0.47048907  0.76600119  0.60040898    -0.74700
O102        O  0.43166263  0.76356326  0.56498079    -0.74800
O103        O  0.50169832  0.79808837  0.55786123    -0.74700
O104        O  0.54121012  0.80250425  0.59388233    -0.74700
O105        O  0.51948679  0.74464889  0.57341639    -0.74700
O106        O  0.52500635  0.85552917  0.57807965    -0.74700
Ni107      Ni  0.44899520  0.76348261  0.58293524     1.25400
Ni108      Ni  0.52430569  0.80125816  0.57554947     1.25400
C109        C  0.49166092  0.85696748  0.58273888     0.87500
C110        C  0.48384534  0.70834155  0.57612970     0.87500
C111        C  0.51199962  0.78556760  0.60313279     0.87500
C112        C  0.45986529  0.78100935  0.55556889     0.87700
O113        O  0.23499295  0.68571465  0.25152361    -0.74700
O114        O  0.34948115  0.79159355  0.24693055    -0.74700
O115        O  0.29012905  0.75432791  0.26685090    -0.74700
O116        O  0.29499648  0.72109132  0.23142464    -0.74800
O117        O  0.26182257  0.75774505  0.22423877    -0.74700
O118        O  0.25579070  0.79064188  0.26038997    -0.74700
O119        O  0.31477813  0.82722157  0.24009227    -0.74700
O120        O  0.20281221  0.72338627  0.24431574    -0.74700
Ni121      Ni  0.29369608  0.73690163  0.24936106     1.25400
Ni122      Ni  0.25777656  0.77614792  0.24198274     1.25400
C123        C  0.19993558  0.68792189  0.24894289     0.87500
C124        C  0.35054473  0.82724781  0.24298621     0.87500
C125        C  0.27130820  0.77676604  0.26963590     0.87500
C126        C  0.27895458  0.73313564  0.22195868     0.87700
O127        O  0.34834706  0.80529790  0.41076080    -0.74700
O128        O  0.23575508  0.70072149  0.41835175    -0.74700
O129        O  0.27458706  0.75137909  0.39664953    -0.74700
O130        O  0.31053278  0.75397679  0.43243556    -0.74800
O131        O  0.28282446  0.79708586  0.43791767    -0.74700
O132        O  0.24556866  0.79375607  0.40168047    -0.74700
O133        O  0.20817402  0.74404536  0.42378008    -0.74700
O134        O  0.31818828  0.84674927  0.41583484    -0.74700
Ni135      Ni  0.29325707  0.75123874  0.41438964     1.25400
Ni136      Ni  0.26256566  0.79676361  0.42003017     1.25400
C137        C  0.35105636  0.84328402  0.41180971     0.87500
C138        C  0.20323909  0.70546189  0.42223181     0.87500
C139        C  0.25514187  0.77275392  0.39311852     0.87500
C140        C  0.30352290  0.77638285  0.44108613     0.87700
O141        O  0.78121853  0.36273716  0.25943797    -0.74700
O142        O  0.67572995  0.24832148  0.25498049    -0.74700
O143        O  0.73206780  0.29184180  0.27515123    -0.74700
O144        O  0.72448767  0.32069641  0.23920176    -0.74800
O145        O  0.76641503  0.29232457  0.23299008    -0.74700
O146        O  0.77423782  0.26313872  0.26950401    -0.74700
O147        O  0.71855294  0.22066878  0.24900006    -0.74700
O148        O  0.82206458  0.33276990  0.25347374    -0.74700
Ni149      Ni  0.72675296  0.30681372  0.25736707     1.25400
Ni150      Ni  0.77162599  0.27608147  0.25099044     1.25400
C151        C  0.81919120  0.36589157  0.25748699     0.87500
C152        C  0.68012499  0.21542380  0.25138101     0.87500
C153        C  0.75515142  0.27394795  0.27840258     0.87500
C154        C  0.74482126  0.31239044  0.23014545     0.87700
O155        O  0.67437213  0.25853945  0.42067536    -0.74700
O156        O  0.78367690  0.36978618  0.42397656    -0.74700
O157        O  0.74256144  0.31015645  0.40445644    -0.74700
O158        O  0.71438134  0.31857441  0.44031187    -0.74800
O159        O  0.74895184  0.28272709  0.44700469    -0.74700
O160        O  0.77703318  0.27366392  0.41060720    -0.74700
O161        O  0.81765314  0.33296406  0.43033352    -0.74700
O162        O  0.70973950  0.22337572  0.42734994    -0.74700
Ni163      Ni  0.72755656  0.31561456  0.42217019     1.25400
Ni164      Ni  0.76465564  0.27701957  0.42908026     1.25400
C165        C  0.67455963  0.22250832  0.42324362     0.87500
C166        C  0.81894502  0.36941863  0.42753337     0.87500
C167        C  0.76363005  0.28999688  0.40149057     0.87500
C168        C  0.72633436  0.30178811  0.44960568     0.87700
C169        C  0.76039476  0.26753634  0.29270607    -0.03600
C170        C  0.79187774  0.25646613  0.29733927    -0.09300
C171        C  0.79871681  0.25462589  0.31095459    -0.17000
C172        C  0.77404550  0.26365863  0.32010168     0.25100
C173        C  0.74216985  0.27376417  0.31552023    -0.18700
C174        C  0.73539249  0.27569907  0.30202325    -0.07600
C175        C  0.78137989  0.26399584  0.33419054    -0.14000
C176        C  0.78329758  0.26698406  0.34609957    -0.13800
C177        C  0.78059164  0.27359487  0.36009461     0.25000
C178        C  0.76006260  0.29723935  0.36419732    -0.19200
C179        C  0.75542197  0.30301191  0.37759106    -0.07600
C180        C  0.77120783  0.28518039  0.38727771    -0.03700
C181        C  0.79235585  0.26182059  0.38312025    -0.09000
C182        C  0.79700742  0.25606387  0.36961598    -0.16700
H183        H  0.81192369  0.25029496  0.29045942     0.11500
H184        H  0.82357629  0.24681181  0.31432225     0.10800
H185        H  0.72280347  0.28084532  0.32242363     0.10700
H186        H  0.71089857  0.28432862  0.29889460     0.11200
H187        H  0.74710972  0.31096171  0.35699774     0.11300
H188        H  0.73890039  0.32110175  0.38034044     0.11300
H189        H  0.80480478  0.24755939  0.39028757     0.11400
H190        H  0.81294405  0.23763337  0.36662125     0.10200
C191        C  0.39197802  0.88452195  0.40844873    -0.03600
C192        C  0.38847155  0.92014300  0.40326675    -0.09300
C193        C  0.42584083  0.96220825  0.40225950    -0.17000
C194        C  0.46708221  0.96913936  0.40646064     0.25100
C195        C  0.47142861  0.93331666  0.41091882    -0.18700
C196        C  0.43391566  0.89086784  0.41181871    -0.07600
C197        C  0.50328411  0.01369023  0.40766796    -0.14000
C198        C  0.53174016  0.05116861  0.40993520    -0.13800
C199        C  0.56576417  0.09454591  0.41382334     0.25000
C200        C  0.59944238  0.09854613  0.42219661    -0.19200
C201        C  0.63373440  0.14037975  0.42573355    -0.07600
C202        C  0.63479450  0.17887682  0.42093647    -0.03700
C203        C  0.59986857  0.17464172  0.41292374    -0.09000
C204        C  0.56546672  0.13252336  0.40936026    -0.16700
H205        H  0.35638004  0.91580104  0.40051442     0.11500
H206        H  0.42216902  0.98970902  0.39883215     0.10800
H207        H  0.50333032  0.93858655  0.41427718     0.10700
H208        H  0.43717125  0.86387612  0.41591748     0.11200
H209        H  0.59962653  0.06930190  0.42580912     0.11300
H210        H  0.66003659  0.14254368  0.43198053     0.11300
H211        H  0.59999510  0.20372531  0.40904487     0.11400
H212        H  0.53918000  0.12959644  0.40295167     0.10200
C213        C  0.15880322  0.66648436  0.42466758    -0.03600
C214        C  0.12482188  0.67248329  0.43001055    -0.09300
C215        C  0.08167362  0.63672446  0.43131938    -0.17000
C216        C  0.07183940  0.59448289  0.42732533     0.25100
C217        C  0.10556829  0.58781342  0.42233220    -0.18700
C218        C  0.14892285  0.62363214  0.42102414    -0.07600
C219        C  0.02686716  0.55831646  0.42800753    -0.14000
C220        C  0.98938720  0.52750199  0.42833603    -0.13800
C221        C  0.94602213  0.48862750  0.42858068     0.25000
C222        C  0.94197801  0.44797236  0.43210931    -0.19200
C223        C  0.90047118  0.40949505  0.43195270    -0.07600
C224        C  0.86223699  0.41105184  0.42823521    -0.03700
C225        C  0.86643978  0.45219221  0.42482789    -0.09000
C226        C  0.90823323  0.49084215  0.42500102    -0.16700
H227        H  0.13133256  0.70502260  0.43297267     0.11500
H228        H  0.05583802  0.64217548  0.43523465     0.10800
H229        H  0.09818904  0.55509777  0.41923728     0.10700
H230        H  0.17432309  0.61801319  0.41686517     0.11200
H231        H  0.97103616  0.44592358  0.43485610     0.11300
H232        H  0.89850940  0.37839744  0.43460770     0.11300
H233        H  0.83765520  0.45440775  0.42189339     0.11400
H234        H  0.91113770  0.52227525  0.42222031     0.10200
C235        C  0.39271444  0.87003969  0.24225326    -0.03600
C236        C  0.39382366  0.90587892  0.23541731    -0.09300
C237        C  0.43062818  0.94843944  0.23634941    -0.17000
C238        C  0.46691574  0.95589386  0.24410821     0.25100
C239        C  0.46713153  0.92016443  0.25046850    -0.18700
C240        C  0.43021434  0.87730976  0.24951459    -0.07600
C241        C  0.50292753  0.00053850  0.24586593    -0.14000
C242        C  0.53237393  0.03841316  0.24712797    -0.13800
C243        C  0.56879659  0.08318191  0.24817425     0.25000
C244        C  0.61107682  0.09282360  0.24412054    -0.19200
C245        C  0.64690212  0.13594394  0.24505199    -0.07600
C246        C  0.64106962  0.17031998  0.25005180    -0.03700
C247        C  0.59834632  0.16049058  0.25405360    -0.09000
C248        C  0.56236243  0.11704694  0.25312097    -0.16700
H249        H  0.36555593  0.90131983  0.22967266     0.11500
H250        H  0.43023140  0.97575666  0.23131611     0.10800
H251        H  0.49523754  0.92563094  0.25646179     0.10700
H252        H  0.43016365  0.85041836  0.25493125     0.11200
H253        H  0.61641275  0.06693167  0.24025914     0.11300
H254        H  0.67930167  0.14224629  0.24187721     0.11300
H255        H  0.59286482  0.18615371  0.25800363     0.11400
H256        H  0.52964560  0.10985939  0.25628453     0.10200
C257        C  0.15501976  0.65056646  0.25175886    -0.03600
C258        C  0.11794770  0.65186548  0.24670091    -0.09300
C259        C  0.07506322  0.62011953  0.25043477    -0.17000
C260        C  0.06847311  0.58654922  0.25926696     0.25100
C261        C  0.10494352  0.58415450  0.26416721    -0.18700
C262        C  0.14819548  0.61611605  0.26043025    -0.07600
C263        C  0.02391616  0.55340018  0.26259658    -0.14000
C264        C  0.98612273  0.52394616  0.26388256    -0.13800
C265        C  0.94304273  0.48495314  0.26366265     0.25000
C266        C  0.94057565  0.44376196  0.26392287    -0.19200
C267        C  0.89994371  0.40527791  0.26214375    -0.07600
C268        C  0.86099165  0.40735157  0.26009914    -0.03700
C269        C  0.86325761  0.44876261  0.26028757    -0.09000
C270        C  0.90438491  0.48759938  0.26196612    -0.16700
H271        H  0.12204900  0.67793310  0.23997624     0.11500
H272        H  0.04702180  0.62182601  0.24644988     0.10800
H273        H  0.09995742  0.55779739  0.27090740     0.10700
H274        H  0.17613277  0.61460337  0.26456196     0.11200
H275        H  0.97032802  0.44144142  0.26514407     0.11300
H276        H  0.89916527  0.37379093  0.26222112     0.11300
H277        H  0.83370094  0.45114783  0.25873402     0.11400
H278        H  0.90620013  0.51956350  0.26162311     0.10200
C279        C  0.26667809  0.78466017  0.28383670    -0.03600
C280        C  0.28808760  0.77257703  0.29344388    -0.09300
C281        C  0.28110005  0.77534537  0.30686975    -0.17000
C282        C  0.25261914  0.79026441  0.31109908     0.25100
C283        C  0.23182624  0.80343833  0.30165978    -0.18700
C284        C  0.23886575  0.80073102  0.28811531    -0.07600
C285        C  0.24448302  0.79057543  0.32512162    -0.14000
C286        C  0.24054934  0.78801596  0.33702370    -0.13800
C287        C  0.23940271  0.78219328  0.35123217     0.25000
C288        C  0.23712594  0.81251275  0.35979184    -0.19200
C289        C  0.23999798  0.80838618  0.37350424    -0.07600
C290        C  0.24565703  0.77413226  0.37884630    -0.03700
C291        C  0.24641943  0.74309747  0.37017879    -0.09000
C292        C  0.24321694  0.74706298  0.35654732    -0.16700
H293        H  0.30976412  0.76010286  0.29060032     0.11500
H294        H  0.29751444  0.76508010  0.31398958     0.10800
H295        H  0.20968213  0.81508389  0.30474842     0.10700
H296        H  0.22166056  0.81006653  0.28101551     0.11200
H297        H  0.23429572  0.83995169  0.35586759     0.11300
H298        H  0.23963643  0.83303163  0.37987819     0.11300
H299        H  0.25056421  0.71623725  0.37392111     0.11400
H300        H  0.24497457  0.72327150  0.35011018     0.10200
C301        C  0.44328340  0.78206428  0.54203107    -0.03600
C302        C  0.39728726  0.76313407  0.53972810    -0.09300
C303        C  0.38111503  0.76530473  0.52725305    -0.17000
C304        C  0.41042511  0.78645114  0.51674489     0.25100
C305        C  0.45632452  0.80528859  0.51888871    -0.18700
C306        C  0.47264749  0.80315579  0.53141134    -0.07600
C307        C  0.39299042  0.78807205  0.50382547    -0.14000
C308        C  0.37697210  0.78756791  0.49312583    -0.13800
C309        C  0.35753618  0.78462266  0.48018773     0.25000
C310        C  0.35968122  0.75699643  0.47061867    -0.19200
C311        C  0.34152892  0.75398608  0.45807596    -0.07600
C312        C  0.32065806  0.77854751  0.45475711    -0.03700
C313        C  0.31808820  0.80590181  0.46446805    -0.09000
C314        C  0.33639830  0.80890718  0.47706555    -0.16700
H315        H  0.37355579  0.74674042  0.54761923     0.11500
H316        H  0.34560153  0.75047439  0.52581663     0.10800
H317        H  0.47956678  0.82173234  0.51088460     0.10700
H318        H  0.50818829  0.81827739  0.53279823     0.11200
H319        H  0.37566197  0.73784024  0.47282629     0.11300
H320        H  0.34420312  0.73251580  0.45092239     0.11300
H321        H  0.30242023  0.82534321  0.46228945     0.11400
H322        H  0.33426111  0.83037077  0.48434193     0.10200
C323        C  0.53253530  0.81940118  0.71174315    -0.03600
C324        C  0.49827069  0.80855059  0.70252255    -0.09300
C325        C  0.50611051  0.80888212  0.68902025    -0.17000
C326        C  0.54830494  0.82007735  0.68434498     0.25100
C327        C  0.58316469  0.83228590  0.69338283    -0.18700
C328        C  0.57535773  0.83204992  0.70699853    -0.07600
C329        C  0.55440906  0.81725635  0.67031161    -0.14000
C330        C  0.55340030  0.81206965  0.65848262    -0.13800
C331        C  0.54533207  0.80316595  0.64449187     0.25000
C332        C  0.57798877  0.82836941  0.63504809    -0.19200
C333        C  0.56808419  0.82148498  0.62152232    -0.07600
C334        C  0.52526019  0.78954833  0.61726070    -0.03700
C335        C  0.49326038  0.76355813  0.62684087    -0.09000
C336        C  0.50324921  0.77028255  0.64027502    -0.16700
H337        H  0.46490128  0.79866243  0.70574888     0.11500
H338        H  0.47878688  0.79942271  0.68220498     0.10800
H339        H  0.61603524  0.84105214  0.68994176     0.10700
H340        H  0.60239775  0.84025462  0.71380883     0.11200
H341        H  0.61068469  0.85400720  0.63812601     0.11300
H342        H  0.59339157  0.84226752  0.61442880     0.11300
H343        H  0.46002136  0.73858937  0.62396294     0.11400
H344        H  0.47758977  0.75045013  0.64741033     0.10200
C345        C  0.55229940  0.19730236  0.59466872    -0.03600
C346        C  0.59090451  0.19407825  0.59371030    -0.09300
C347        C  0.58802418  0.15253849  0.59496916    -0.17000
C348        C  0.54673685  0.11436208  0.59738409     0.25100
C349        C  0.50885926  0.11798741  0.59904669    -0.18700
C350        C  0.51157429  0.15902941  0.59769648    -0.07600
C351        C  0.54141538  0.07073290  0.59684265    -0.14000
C352        C  0.53220614  0.03283875  0.59518877    -0.13800
C353        C  0.51961703  0.98797633  0.59186079     0.25000
C354        C  0.48985934  0.95222729  0.59978269    -0.19200
C355        C  0.47843761  0.90878233  0.59645653    -0.07600
C356        C  0.49710133  0.90100529  0.58524928    -0.03700
C357        C  0.52586424  0.93696818  0.57718109    -0.09000
C358        C  0.53682791  0.98010470  0.58042874    -0.16700
H359        H  0.62260704  0.22305487  0.59137885     0.11500
H360        H  0.61756514  0.14997807  0.59360009     0.10800
H361        H  0.47679893  0.08875695  0.60088939     0.10700
H362        H  0.48134010  0.16058081  0.59866864     0.11200
H363        H  0.47608180  0.95798923  0.60861048     0.11300
H364        H  0.45669596  0.88161863  0.60290651     0.11300
H365        H  0.54058826  0.93174568  0.56847545     0.11400
H366        H  0.55936087  0.00741722  0.57413735     0.10200
C367        C  0.53231067  0.41434480  0.58045577    -0.03600
C368        C  0.56668721  0.45811909  0.58265622    -0.09300
C369        C  0.55890177  0.49373874  0.58115753    -0.17000
C370        C  0.51673567  0.48608631  0.57745513     0.25100
C371        C  0.48259969  0.44272442  0.57507729    -0.18700
C372        C  0.49027333  0.40720536  0.57654565    -0.07600
C373        C  0.50802535  0.52240853  0.57634226    -0.14000
C374        C  0.50049633  0.55267911  0.57559196    -0.13800
C375        C  0.49333416  0.59006821  0.57489228     0.25000
C376        C  0.45973152  0.59066669  0.58235772    -0.19200
C377        C  0.45509565  0.62843168  0.58233967    -0.07600
C378        C  0.48436894  0.66619934  0.57494647    -0.03700
C379        C  0.51712748  0.66472608  0.56719213    -0.09000
C380        C  0.52145362  0.62693882  0.56713932    -0.16700
H381        H  0.59934498  0.46477528  0.58566931     0.11500
H382        H  0.58565256  0.52720129  0.58301799     0.10800
H383        H  0.44986037  0.43628482  0.57220899     0.10700
H384        H  0.46294377  0.37399721  0.57476314     0.11200
H385        H  0.43777680  0.56235401  0.58842327     0.11300
H386        H  0.42983829  0.62873073  0.58848776     0.11300
H387        H  0.54006339  0.69320202  0.56134564     0.11400
H388        H  0.54746857  0.62690924  0.56129028     0.10200
C389        C  0.71250853  0.30394743  0.46337857    -0.03600
C390        C  0.69105920  0.32827523  0.46608584    -0.09300
C391        C  0.67475663  0.32812884  0.47869424    -0.17000
C392        C  0.67939571  0.30365187  0.48892554     0.25100
C393        C  0.70174725  0.28019706  0.48645762    -0.18700
C394        C  0.71825876  0.28037749  0.47379432    -0.07600
C395        C  0.66029223  0.30226409  0.50177247    -0.14000
C396        C  0.64357447  0.30244586  0.51225076    -0.13800
C397        C  0.62476168  0.30457898  0.52482376     0.25000
C398        C  0.65253988  0.33338587  0.53457711    -0.19200
C399        C  0.63512929  0.33538548  0.54680974    -0.07600
C400        C  0.58937883  0.30859903  0.54962773    -0.03700
C401        C  0.56140521  0.28020982  0.53970162    -0.09000
C402        C  0.57900675  0.27823170  0.52740700    -0.16700
H403        H  0.68618703  0.34705535  0.45837820     0.11500
H404        H  0.65787852  0.34665576  0.48040804     0.10800
H405        H  0.70585642  0.26121970  0.49426868     0.10700
H406        H  0.73457835  0.26133449  0.47209357     0.11200
H407        H  0.68786922  0.35414185  0.53277229     0.11300
H408        H  0.65784690  0.35772536  0.55414805     0.11300
H409        H  0.52617078  0.25902195  0.54151271     0.11400
H410        H  0.55694500  0.25584025  0.51995862     0.10200
C411        C  0.49889370  0.90684384  0.75592427    -0.03600
C412        C  0.53467444  0.94040688  0.76303548    -0.09300
C413        C  0.53990110  0.98259464  0.76407668    -0.17000
C414        C  0.50952692  0.99213844  0.75805724     0.25100
C415        C  0.47277225  0.95864346  0.75134143    -0.18700
C416        C  0.46734292  0.91601642  0.75031391    -0.07600
C417        C  0.51755295  0.03684851  0.75854394    -0.14000
C418        C  0.52713995  0.07516457  0.75933059    -0.13800
C419        C  0.53827441  0.12072326  0.76061716     0.25000
C420        C  0.51167144  0.13096207  0.76843978    -0.19200
C421        C  0.52030129  0.17455969  0.76912003    -0.07600
C422        C  0.55581034  0.20870394  0.76199482    -0.03700
C423        C  0.58366429  0.19855737  0.75459525    -0.09000
C424        C  0.57480803  0.15468215  0.75388172    -0.16700
H425        H  0.55933358  0.93436651  0.76760859     0.11500
H426        H  0.56826190  0.00809714  0.76936329     0.10800
H427        H  0.44892544  0.96570874  0.74668366     0.10700
H428        H  0.43952251  0.89085288  0.74478639     0.11200
H429        H  0.48355764  0.10505209  0.77377069     0.11300
H430        H  0.49833656  0.18132560  0.77495149     0.11300
H431        H  0.61099356  0.22407775  0.74893077     0.11400
H432        H  0.59575816  0.14709731  0.74783655     0.10200
C433        C  0.55694401  0.43756080  0.75105838    -0.03600
C434        C  0.59228140  0.47599276  0.74537422    -0.09300
C435        C  0.58657311  0.51185857  0.74193530    -0.17000
C436        C  0.54553188  0.50932141  0.74408684     0.25100
C437        C  0.51048287  0.47133878  0.74975893    -0.18700
C438        C  0.51609371  0.43580741  0.75323066    -0.07600
C439        C  0.53911338  0.54602135  0.74117315    -0.14000
C440        C  0.53132706  0.57585850  0.74016213    -0.13800
C441        C  0.52356792  0.61252669  0.74066158     0.25000
C442        C  0.48024762  0.60578101  0.74048872    -0.19200
C443        C  0.47325662  0.64173802  0.74219421    -0.07600
C444        C  0.50965240  0.68448731  0.74421235    -0.03700
C445        C  0.55296088  0.69071611  0.74411457    -0.09000
C446        C  0.55979613  0.65505231  0.74236273    -0.16700
H447        H  0.62397730  0.47818550  0.74353501     0.11500
H448        H  0.61406465  0.54146988  0.73763697     0.10800
H449        H  0.47877118  0.46923973  0.75155482     0.10700
H450        H  0.48803990  0.40670160  0.75753221     0.11200
H451        H  0.45193594  0.57271345  0.73929100     0.11300
H452        H  0.43964587  0.63602920  0.74222509     0.11300
H453        H  0.58185285  0.72326240  0.74552395     0.11400
H454        H  0.59335527  0.66054150  0.74260384     0.10200
C455        C  0.52091239  0.29540436  0.72016394    -0.03600
C456        C  0.47779860  0.28390953  0.71597427    -0.09300
C457        C  0.46713780  0.27945444  0.70246714    -0.17000
C458        C  0.49934497  0.28612560  0.69298223     0.25100
C459        C  0.54182729  0.29641713  0.69715199    -0.18700
C460        C  0.55253418  0.30104754  0.71054444    -0.07600
C461        C  0.49035404  0.28430953  0.67894593    -0.14000
C462        C  0.48931104  0.28590415  0.66700966    -0.13800
C463        C  0.49606970  0.29171999  0.65285324     0.25000
C464        C  0.53893758  0.32008020  0.64805194    -0.19200
C465        C  0.54724854  0.32515027  0.63451296    -0.07600
C466        C  0.51281324  0.30183236  0.62534668    -0.03700
C467        C  0.46947158  0.27385567  0.63019215    -0.09000
C468        C  0.46116413  0.26882687  0.64385902    -0.16700
H469        H  0.45274947  0.27963013  0.72309251     0.11500
H470        H  0.43412445  0.27158002  0.69942870     0.10800
H471        H  0.56715862  0.30169695  0.68999436     0.10700
H472        H  0.58599320  0.30979044  0.71334678     0.11200
H473        H  0.56634702  0.33798911  0.65482127     0.11300
H474        H  0.58105982  0.34689752  0.63124867     0.11300
H475        H  0.44222086  0.25521778  0.62344951     0.11400
H476        H  0.42777310  0.24668738  0.64739195     0.10200
C477        C  0.34907729  0.63214224  0.87566033    -0.03600
C478        C  0.33471162  0.60327919  0.86480266    -0.09300
C479        C  0.35074203  0.61943276  0.85208468    -0.17000
C480        C  0.38151179  0.66456485  0.85002986     0.25100
C481        C  0.39593668  0.69337712  0.86078427    -0.18700
C482        C  0.37987202  0.67739991  0.87345365    -0.07600
C483        C  0.39832026  0.68172110  0.83696260    -0.14000
C484        C  0.41273640  0.69750483  0.82618674    -0.13800
C485        C  0.42900750  0.71666472  0.81325769     0.25000
C486        C  0.47478905  0.74155414  0.81062982    -0.19200
C487        C  0.49021112  0.75951416  0.79801696    -0.07600
C488        C  0.45998076  0.75277383  0.78782765    -0.03700
C489        C  0.41407777  0.72818206  0.79065110    -0.09000
C490        C  0.39881102  0.71036257  0.80321836    -0.16700
H491        H  0.31107050  0.56831750  0.86612930     0.11500
H492        H  0.33915791  0.59668820  0.84386114     0.10800
H493        H  0.41968661  0.72830167  0.85938289     0.10700
H494        H  0.39190857  0.70060145  0.88155723     0.11200
H495        H  0.49861148  0.74683654  0.81830782     0.11300
H496        H  0.52566444  0.77808901  0.79620010     0.11300
H497        H  0.38971566  0.72224815  0.78309051     0.11400
H498        H  0.36336434  0.69137951  0.80507486     0.10200
C499        C  0.28953035  0.60285301  0.12127455    -0.03600
C500        C  0.31410523  0.64842936  0.12430280    -0.09300
C501        C  0.31175519  0.66382615  0.13681516    -0.17000
C502        C  0.28478096  0.63412565  0.14662236     0.25100
C503        C  0.26072624  0.58856385  0.14380815    -0.18700
C504        C  0.26308156  0.57300653  0.13124755    -0.07600
C505        C  0.28181105  0.65078175  0.15945587    -0.14000
C506        C  0.28047790  0.66585659  0.17009136    -0.13800
C507        C  0.28033192  0.68367893  0.18299639     0.25000
C508        C  0.30024969  0.67479023  0.19367057    -0.19200
C509        C  0.30011394  0.69135793  0.20619084    -0.07600
C510        C  0.28004994  0.71733391  0.20837473    -0.03700
C511        C  0.26036176  0.72650744  0.19757748    -0.09000
C512        C  0.26052425  0.70979480  0.18500011    -0.16700
H513        H  0.33495443  0.67250042  0.11693233     0.11500
H514        H  0.33073155  0.69906641  0.13879663     0.10800
H515        H  0.23978434  0.56504768  0.15128666     0.10700
H516        H  0.24370033  0.53780440  0.12928728     0.11200
H517        H  0.31579412  0.65481717  0.19233635     0.11300
H518        H  0.31562715  0.68348487  0.21421095     0.11300
H519        H  0.24454181  0.74621569  0.19886888     0.11400
H520        H  0.24500361  0.71710337  0.17685143     0.10200
C521        C  0.27536015  0.54918216  0.95076817    -0.03600
C522        C  0.27712634  0.57954587  0.96018219    -0.09300
C523        C  0.27220761  0.56883010  0.97360562    -0.17000
C524        C  0.26566662  0.52771626  0.97791441     0.25100
C525        C  0.26251435  0.49670039  0.96859366    -0.18700
C526        C  0.26708462  0.50726089  0.95510247    -0.07600
C527        C  0.26505760  0.51897449  0.99190702    -0.14000
C528        C  0.26790702  0.51641091  0.00373798    -0.13800
C529        C  0.27526304  0.51987805  0.01783983     0.25000
C530        C  0.24617650  0.48631912  0.02653228    -0.19200
C531        C  0.25208722  0.49227309  0.04023120    -0.07600
C532        C  0.28691958  0.53203331  0.04537789    -0.03700
C533        C  0.31680349  0.56465171  0.03653218    -0.09000
C534        C  0.31101986  0.55857104  0.02293540    -0.16700
H535        H  0.28322410  0.61200632  0.95719084     0.11500
H536        H  0.27470707  0.59319324  0.98066876     0.10800
H537        H  0.25763541  0.46483452  0.97176413     0.10700
H538        H  0.26585320  0.48328836  0.94811605     0.11200
H539        H  0.21833372  0.45618140  0.02274641     0.11300
H540        H  0.22830080  0.46669295  0.04676961     0.11300
H541        H  0.34405243  0.59557373  0.04012708     0.11400
H542        H  0.33388306  0.58478497  0.01637280     0.10200
C543        C  0.89054647  0.53172443  0.91274979    -0.03600
C544        C  0.92459389  0.57005465  0.90656343    -0.09300
C545        C  0.96731564  0.57643106  0.90538893    -0.17000
C546        C  0.97682266  0.54466794  0.91034585     0.25100
C547        C  0.94296583  0.50564395  0.91613957    -0.18700
C548        C  0.89988062  0.49909153  0.91731149    -0.07600
C549        C  0.02177147  0.55328942  0.90978986    -0.14000
C550        C  0.06001723  0.56231628  0.90923454    -0.13800
C551        C  0.10523712  0.57184795  0.90844773     0.25000
C552        C  0.11498784  0.54393977  0.90115293    -0.19200
C553        C  0.15809315  0.55083650  0.90103189    -0.07600
C554        C  0.19217643  0.58587307  0.90819971    -0.03700
C555        C  0.18259771  0.61495235  0.91509495    -0.09000
C556        C  0.13919030  0.60782247  0.91525330    -0.16700
H557        H  0.91850262  0.59571867  0.90283169     0.11500
H558        H  0.99317522  0.60660671  0.90083503     0.10800
H559        H  0.95006706  0.48076815  0.91997477     0.10700
H560        H  0.87438197  0.46933443  0.92211844     0.11200
H561        H  0.08902657  0.51616859  0.89580665     0.11300
H562        H  0.16449136  0.52798773  0.89557703     0.11300
H563        H  0.20811548  0.64195299  0.92077636     0.11400
H564        H  0.13190750  0.62966984  0.92092183     0.10200
C565        C  0.41883876  0.58248635  0.91965098    -0.03600
C566        C  0.42207346  0.54759183  0.91389870    -0.09300
C567        C  0.45580984  0.53931139  0.91755697    -0.17000
C568        C  0.48684127  0.56566316  0.92703275     0.25100
C569        C  0.48492644  0.60143222  0.93257223    -0.18700
C570        C  0.45098930  0.60990482  0.92888171    -0.07600
C571        C  0.52137323  0.55635420  0.93047315    -0.14000
C572        C  0.55087719  0.54798354  0.93144779    -0.13800
C573        C  0.58865704  0.54208668  0.93020453     0.25000
C574        C  0.62717509  0.57645106  0.92457012    -0.19200
C575        C  0.66364257  0.57118377  0.92237252    -0.07600
C576        C  0.66238197  0.53128788  0.92577309    -0.03700
C577        C  0.62348238  0.49661948  0.93145671    -0.09000
C578        C  0.58661215  0.50202693  0.93364523    -0.16700
H579        H  0.39798450  0.52607614  0.90668711     0.11500
H580        H  0.45747689  0.51206308  0.91305941     0.10800
H581        H  0.50929696  0.62239922  0.93980589     0.10700
H582        H  0.44906506  0.63679904  0.93350886     0.11200
H583        H  0.62887382  0.60730060  0.92171270     0.11300
H584        H  0.69288262  0.59861474  0.91791754     0.11300
H585        H  0.62161200  0.46563453  0.93418338     0.11400
H586        H  0.55655438  0.47500184  0.93788635     0.10200
C587        C  0.73378968  0.48915266  0.88163026    -0.03600
C588        C  0.71296370  0.44363111  0.87855783    -0.09300
C589        C  0.69529090  0.42819960  0.86602705    -0.17000
C590        C  0.69784535  0.45778103  0.85621657     0.25100
C591        C  0.71899001  0.50331081  0.85907972    -0.18700
C592        C  0.73689295  0.51893255  0.87167565    -0.07600
C593        C  0.67848413  0.44085412  0.84333811    -0.14000
C594        C  0.66205130  0.42479834  0.83275952    -0.13800
C595        C  0.64351547  0.40519471  0.82002671     0.25000
C596        C  0.59739345  0.37853887  0.81823244    -0.19200
C597        C  0.57984033  0.36020864  0.80583204    -0.07600
C598        C  0.60817786  0.36816088  0.79499255    -0.03700
C599        C  0.65445226  0.39450543  0.79697356    -0.09000
C600        C  0.67184715  0.41277719  0.80932525    -0.16700
H601        H  0.70993387  0.41957622  0.88590650     0.11500
H602        H  0.67929060  0.39301007  0.86402407     0.10800
H603        H  0.72137279  0.52675848  0.85160569     0.10700
H604        H  0.75247453  0.55406521  0.87367653     0.11200
H605        H  0.57491905  0.37213111  0.82640180     0.11300
H606        H  0.54414466  0.34021197  0.80470504     0.11300
H607        H  0.67743730  0.40152389  0.78891013     0.11400
H608        H  0.70752229  0.43310997  0.81049852     0.10200
C609        C  0.74394453  0.32763630  0.21638496    -0.03600
C610        C  0.72293901  0.35255143  0.21371972    -0.09300
C611        C  0.72384628  0.36932654  0.20106225    -0.17000
C612        C  0.74564791  0.36158608  0.19071940     0.25100
C613        C  0.76608936  0.33622877  0.19320024    -0.18700
C614        C  0.76531600  0.31944417  0.20590866    -0.07600
C615        C  0.74738415  0.38020499  0.17768973    -0.14000
C616        C  0.74858522  0.39617627  0.16690123    -0.13800
C617        C  0.74973382  0.41459377  0.15387878     0.25000
C618        C  0.72905867  0.38627978  0.14320906    -0.19200
C619        C  0.73083370  0.40363873  0.13057329    -0.07600
C620        C  0.75332752  0.44985379  0.12827188    -0.03700
C621        C  0.77357672  0.47817324  0.13907380    -0.09000
C622        C  0.77179765  0.46067708  0.15174156    -0.16700
H623        H  0.70622318  0.35974160  0.22148621     0.11500
H624        H  0.70781858  0.38874625  0.19937955     0.10800
H625        H  0.78304149  0.32976328  0.18533345     0.10700
H626        H  0.78183908  0.30050117  0.20755709     0.11200
H627        H  0.71175676  0.35063884  0.14462842     0.11300
H628        H  0.71472536  0.38066596  0.12256184     0.11300
H629        H  0.79116644  0.51381963  0.13771805     0.11400
H630        H  0.78794077  0.48317186  0.15985880     0.10200
C631        C  0.17659681  0.56280361  0.07593066    -0.03600
C632        C  0.17204528  0.60068114  0.07578925    -0.09300
C633        C  0.13003943  0.59633686  0.07384933    -0.17000
C634        C  0.09265286  0.55426818  0.07184100     0.25100
C635        C  0.09750125  0.51688862  0.07142327    -0.18700
C636        C  0.13902552  0.52106606  0.07346007    -0.07600
C637        C  0.04849669  0.54797180  0.07159540    -0.14000
C638        C  0.01037162  0.53872316  0.07298896    -0.13800
C639        C  0.96582762  0.52697159  0.07665406     0.25000
C640        C  0.92878809  0.49393998  0.06993256    -0.19200
C641        C  0.88568335  0.48265374  0.07387990    -0.07600
C642        C  0.87950437  0.50452334  0.08455035    -0.03700
C643        C  0.91695781  0.53679995  0.09138341    -0.09000
C644        C  0.95969108  0.54783742  0.08747876    -0.16700
H645        H  0.20042671  0.63315371  0.07766075     0.11500
H646        H  0.12651163  0.62549526  0.07430452     0.10800
H647        H  0.06886005  0.48421685  0.06994973     0.10700
H648        H  0.14153019  0.49128929  0.07333067     0.11200
H649        H  0.93322897  0.47731633  0.06158594     0.11300
H650        H  0.85744879  0.45825422  0.06831766     0.11300
H651        H  0.91323626  0.55428476  0.09962484     0.11400
H652        H  0.98802772  0.57300947  0.09284631     0.10200
C653        C  0.40116709  0.55644581  0.09004908    -0.03600
C654        C  0.39765522  0.52095623  0.09769181    -0.09300
C655        C  0.43331411  0.51330440  0.09868797    -0.17000
C656        C  0.47305273  0.54081993  0.09202604     0.25100
C657        C  0.47748981  0.57714746  0.08471920    -0.18700
C658        C  0.44177571  0.58507520  0.08377395    -0.07600
C659        C  0.50855158  0.53076262  0.09247805    -0.14000
C660        C  0.53778273  0.52166267  0.09301171    -0.13800
C661        C  0.57434263  0.51326439  0.09386094     0.25000
C662        C  0.57062574  0.47392536  0.08898883    -0.19200
C663        C  0.60740028  0.46748872  0.08929356    -0.07600
C664        C  0.64825687  0.50046115  0.09445201    -0.03700
C665        C  0.65102224  0.53918163  0.09965487    -0.09000
C666        C  0.61445693  0.54548313  0.09934086    -0.16700
H667        H  0.36694183  0.49850167  0.10273364     0.11500
H668        H  0.42954444  0.48532730  0.10444457     0.10800
H669        H  0.50819950  0.59878886  0.07954742     0.10700
H670        H  0.44536344  0.61249396  0.07777800     0.11200
H671        H  0.53962783  0.44865452  0.08474540     0.11300
H672        H  0.60423493  0.43743514  0.08517818     0.11300
H673        H  0.68184766  0.56526523  0.10374161     0.11400
H674        H  0.61775406  0.57595560  0.10317698     0.10200
C675        C  0.77338882  0.53752771  0.05297833    -0.03600
C676        C  0.74298743  0.50880684  0.04353550    -0.09300
C677        C  0.75032850  0.51864464  0.03006545    -0.17000
C678        C  0.78834733  0.55719381  0.02569669     0.25100
C679        C  0.81830547  0.58664410  0.03504007    -0.18700
C680        C  0.81075235  0.57701975  0.04858732    -0.07600
C681        C  0.79709486  0.56502482  0.01164834    -0.14000
C682        C  0.80237291  0.56769565  0.99978539    -0.13800
C683        C  0.80588014  0.56590470  0.98555800     0.25000
C684        C  0.80638488  0.59867187  0.97729155    -0.19200
C685        C  0.80565079  0.59420122  0.96350484    -0.07600
C686        C  0.80385446  0.55661321  0.95780820    -0.03700
C687        C  0.80509275  0.52485825  0.96619090    -0.09000
C688        C  0.80622031  0.52954941  0.97988906    -0.16700
H689        H  0.71386294  0.47817791  0.04656239     0.11500
H690        H  0.72674781  0.49550803  0.02302186     0.10800
H691        H  0.84795888  0.61652255  0.03185513     0.10700
H692        H  0.83505242  0.59953311  0.05558634     0.11200
H693        H  0.80603742  0.62697458  0.98149155     0.11300
H694        H  0.80426707  0.61898117  0.95734082     0.11300
H695        H  0.80390289  0.49560529  0.96214853     0.11400
H696        H  0.80595437  0.50395034  0.98608299     0.10200
loop_ 
_geom_bond_atom_site_label_1 
_geom_bond_atom_site_label_2 
_geom_bond_distance 
_geom_bond_site_symmetry_2 
_ccdc_geom_bond_type 
O1           Ni9   1.939       .  S
O1           C11   1.286       .  A
O2           Ni9   1.938       .  S
O2           C12   1.286       .  A
O3           Ni9   1.910       .  S
O3           C13   1.279       .  A
O4           Ni9   1.921       .  S
O4           C14   1.282       .  A
O5          Ni10   1.944       .  S
O5           C14   1.287       .  A
O6          Ni10   1.946       .  S
O6           C13   1.288       .  A
O7          Ni10   1.899       .  S
O7           C12   1.278       .  A
O8          Ni10   1.891       .  S
O8           C11   1.276       .  A
Ni9         Ni10   2.384       .  S
C11         C642   1.476       .  S
C12         C664   1.484       .  S
C13         C675   1.491       .  S
C14         C620   1.499       .  S
O15         Ni23   1.941       .  S
O15          C25   1.287       .  A
O16         Ni23   1.937       .  S
O16          C26   1.286       .  A
O17         Ni23   1.907       .  S
O17          C27   1.278       .  A
O18         Ni23   1.910       .  S
O18          C28   1.280       .  A
O19         Ni24   1.949       .  S
O19          C28   1.288       .  A
O20         Ni24   1.950       .  S
O20          C27   1.288       .  A
O21         Ni24   1.892       .  S
O21          C26   1.276       .  A
O22         Ni24   1.881       .  S
O22          C25   1.274       .  A
Ni23        Ni24   2.384       .  S
C25         C576   1.478       .  S
C26         C543   1.479       .  S
C27         C686   1.491       .  S
C28         C587   1.496       .  S
O29         Ni37   1.938       .  S
O29          C39   1.286       .  A
O30         Ni37   1.936       .  S
O30          C40   1.285       .  A
O31         Ni37   1.907       .  S
O31          C41   1.279       .  A
O32         Ni37   1.912       .  S
O32          C42   1.280       .  A
O33         Ni38   1.944       .  S
O33          C42   1.287       .  A
O34         Ni38   1.943       .  S
O34          C41   1.287       .  A
O35         Ni38   1.902       .  S
O35          C40   1.278       .  A
O36         Ni38   1.893       .  S
O36          C39   1.277       .  A
Ni37        Ni38   2.385       .  S
C39         C631   1.477       .  S
C40         C653   1.481       .  S
C41         C532   1.489       .  S
C42         C499   1.495       .  S
O43         Ni51   1.931       .  S
O43          C53   1.284       .  A
O44         Ni51   1.930       .  S
O44          C54   1.284       .  A
O45         Ni51   1.911       .  S
O45          C55   1.280       .  A
O46         Ni51   1.918       .  S
O46          C56   1.282       .  A
O47         Ni52   1.934       .  S
O47          C56   1.285       .  A
O48         Ni52   1.938       .  S
O48          C55   1.286       .  A
O49         Ni52   1.897       .  S
O49          C54   1.277       .  A
O50         Ni52   1.892       .  S
O50          C53   1.277       .  A
Ni51        Ni52   2.386       .  S
C53         C565   1.474       .  S
C54         C554   1.476       .  S
C55         C521   1.487       .  S
C56         C477   1.491       .  S
O57         Ni65   1.932       .  S
O57          C67   1.285       .  A
O58         Ni65   1.933       .  S
O58          C68   1.285       .  A
O59         Ni65   1.910       .  S
O59          C69   1.280       .  A
O60         Ni65   1.918       .  S
O60          C70   1.281       .  A
O61         Ni66   1.944       .  S
O61          C70   1.287       .  A
O62         Ni66   1.946       .  S
O62          C69   1.288       .  A
O63         Ni66   1.899       .  S
O63          C68   1.278       .  A
O64         Ni66   1.891       .  S
O64          C67   1.276       .  A
Ni65        Ni66   2.384       .  S
C67         C433   1.477       .  S
C68         C422   1.479       .  S
C69         C455   1.493       .  S
C70         C598   1.497       .  S
O71         Ni79   1.939       .  S
O71          C81   1.286       .  A
O72         Ni79   1.939       .  S
O72          C82   1.287       .  A
O73         Ni79   1.907       .  S
O73          C83   1.279       .  A
O74         Ni79   1.909       .  S
O74          C84   1.279       .  A
O75         Ni80   1.950       .  S
O75          C84   1.289       .  A
O76         Ni80   1.948       .  S
O76          C83   1.288       .  A
O77         Ni80   1.903       .  S
O77          C82   1.278       .  A
O78         Ni80   1.891       .  S
O78          C81   1.276       .  A
Ni79        Ni80   2.383       .  S
C81         C345   1.476       .  S
C82         C367   1.487       .  S
C83         C466   1.495       .  S
C84         C400   1.496       .  S
O85         Ni93   1.938       .  S
O85          C95   1.286       .  A
O86         Ni93   1.939       .  S
O86          C96   1.286       .  A
O87         Ni93   1.906       .  S
O87          C97   1.279       .  A
O88         Ni93   1.909       .  S
O88          C98   1.279       .  A
O89         Ni94   1.943       .  S
O89          C98   1.287       .  A
O90         Ni94   1.946       .  S
O90          C97   1.288       .  A
O91         Ni94   1.893       .  S
O91          C96   1.276       .  A
O92         Ni94   1.884       .  S
O92          C95   1.275       .  A
Ni93        Ni94   2.384       .  S
C95         C444   1.476       .  S
C96         C411   1.480       .  S
C97         C323   1.492       .  S
C98         C488   1.492       .  S
O99        Ni107   1.933       .  S
O99         C109   1.284       .  A
O100       Ni107   1.934       .  S
O100        C110   1.285       .  A
O101       Ni107   1.910       .  S
O101        C111   1.280       .  A
O102       Ni107   1.920       .  S
O102        C112   1.282       .  A
O103       Ni108   1.941       .  S
O103        C112   1.287       .  A
O104       Ni108   1.946       .  S
O104        C111   1.288       .  A
O105       Ni108   1.907       .  S
O105        C110   1.279       .  A
O106       Ni108   1.897       .  S
O106        C109   1.277       .  A
Ni107      Ni108   2.385       .  S
C109        C356   1.472       .  S
C110        C378   1.483       .  S
C111        C334   1.492       .  S
C112        C301   1.497       .  S
O113       Ni121   1.934       .  S
O113        C123   1.285       .  A
O114       Ni121   1.934       .  S
O114        C124   1.285       .  A
O115       Ni121   1.905       .  S
O115        C125   1.279       .  A
O116       Ni121   1.914       .  S
O116        C126   1.280       .  A
O117       Ni122   1.946       .  S
O117        C126   1.288       .  A
O118       Ni122   1.950       .  S
O118        C125   1.289       .  A
O119       Ni122   1.895       .  S
O119        C124   1.277       .  A
O120       Ni122   1.886       .  S
O120        C123   1.275       .  A
Ni121      Ni122   2.384       .  S
C123        C257   1.474       .  S
C124        C235   1.478       .  S
C125        C279   1.494       .  S
C126        C510   1.496       .  S
O127       Ni135   1.930       .  S
O127        C137   1.284       .  A
O128       Ni135   1.929       .  S
O128        C138   1.284       .  A
O129       Ni135   1.915       .  S
O129        C139   1.281       .  A
O130       Ni135   1.916       .  S
O130        C140   1.281       .  A
O131       Ni136   1.946       .  S
O131        C140   1.288       .  A
O132       Ni136   1.942       .  S
O132        C139   1.287       .  A
O133       Ni136   1.898       .  S
O133        C138   1.277       .  A
O134       Ni136   1.889       .  S
O134        C137   1.276       .  A
Ni135      Ni136   2.386       .  S
C137        C191   1.466       .  S
C138        C213   1.478       .  S
C139        C290   1.492       .  S
C140        C312   1.497       .  S
O141       Ni149   1.931       .  S
O141        C151   1.284       .  A
O142       Ni149   1.933       .  S
O142        C152   1.285       .  A
O143       Ni149   1.911       .  S
O143        C153   1.280       .  A
O144       Ni149   1.916       .  S
O144        C154   1.281       .  A
O145       Ni150   1.945       .  S
O145        C154   1.288       .  A
O146       Ni150   1.944       .  S
O146        C153   1.287       .  A
O147       Ni150   1.898       .  S
O147        C152   1.277       .  A
O148       Ni150   1.889       .  S
O148        C151   1.276       .  A
Ni149      Ni150   2.384       .  S
C151        C268   1.472       .  S
C152        C246   1.481       .  S
C153        C169   1.493       .  S
C154        C609   1.498       .  S
O155       Ni163   1.926       .  S
O155        C165   1.284       .  A
O156       Ni163   1.926       .  S
O156        C166   1.284       .  A
O157       Ni163   1.911       .  S
O157        C167   1.280       .  A
O158       Ni163   1.916       .  S
O158        C168   1.281       .  A
O159       Ni164   1.942       .  S
O159        C168   1.287       .  A
O160       Ni164   1.943       .  S
O160        C167   1.287       .  A
O161       Ni164   1.900       .  S
O161        C166   1.278       .  A
O162       Ni164   1.895       .  S
O162        C165   1.277       .  A
Ni163      Ni164   2.385       .  S
C165        C202   1.474       .  S
C166        C224   1.478       .  S
C167        C180   1.494       .  S
C168        C389   1.495       .  S
C169        C170   1.410       .  A
C169        C174   1.409       .  A
C170        C171   1.409       .  A
C170        H183   1.084       .  S
C171        C172   1.405       .  A
C171        H184   1.082       .  S
C172        C173   1.398       .  A
C172        C175   1.452       .  S
C173        C174   1.398       .  A
C173        H185   1.085       .  S
C174        H186   1.082       .  S
C175        C176   1.214       .  T
C176        C177   1.452       .  S
C177        C178   1.399       .  A
C177        C182   1.405       .  A
C178        C179   1.398       .  A
C178        H187   1.085       .  S
C179        C180   1.410       .  A
C179        H188   1.082       .  S
C180        C181   1.409       .  A
C181        C182   1.409       .  A
C181        H189   1.084       .  S
C182        H190   1.082       .  S
C191        C192   1.405       .  A
C191        C196   1.402       .  A
C192        C193   1.391       .  A
C192        H205   1.084       .  S
C193        C194   1.395       .  A
C193        H206   1.083       .  S
C194        C195   1.402       .  A
C194        C197   1.432   1_565  S
C195        C196   1.400       .  A
C195        H207   1.084       .  S
C196        H208   1.083       .  S
C197        C198   1.201       .  T
C198        C199   1.432       .  S
C199        C200   1.395       .  A
C199        C204   1.401       .  A
C200        C201   1.391       .  A
C200        H209   1.084       .  S
C201        C202   1.407       .  A
C201        H210   1.083       .  S
C202        C203   1.406       .  A
C203        C204   1.400       .  A
C203        H211   1.083       .  S
C204        H212   1.084       .  S
C213        C214   1.409       .  A
C213        C218   1.405       .  A
C214        C215   1.394       .  A
C214        H227   1.083       .  S
C215        C216   1.396       .  A
C215        H228   1.084       .  S
C216        C217   1.401       .  A
C216        C219   1.435       .  S
C217        C218   1.399       .  A
C217        H229   1.084       .  S
C218        H230   1.083       .  S
C219        C220   1.203   1_455  T
C220        C221   1.435       .  S
C221        C222   1.396       .  A
C221        C226   1.401       .  A
C222        C223   1.392       .  A
C222        H231   1.084       .  S
C223        C224   1.408       .  A
C223        H232   1.083       .  S
C224        C225   1.407       .  A
C225        C226   1.401       .  A
C225        H233   1.083       .  S
C226        H234   1.084       .  S
C235        C236   1.408       .  A
C235        C240   1.405       .  A
C236        C237   1.394       .  A
C236        H249   1.083       .  S
C237        C238   1.396       .  A
C237        H250   1.084       .  S
C238        C239   1.402       .  A
C238        C241   1.438   1_565  S
C239        C240   1.402       .  A
C239        H251   1.083       .  S
C240        H252   1.083       .  S
C241        C242   1.205       .  T
C242        C243   1.438       .  S
C243        C244   1.396       .  A
C243        C248   1.402       .  A
C244        C245   1.393       .  A
C244        H253   1.084       .  S
C245        C246   1.409       .  A
C245        H254   1.083       .  S
C246        C247   1.407       .  A
C247        C248   1.402       .  A
C247        H255   1.083       .  S
C248        H256   1.084       .  S
C257        C258   1.408       .  A
C257        C262   1.405       .  A
C258        C259   1.390       .  A
C258        H271   1.084       .  S
C259        C260   1.394       .  A
C259        H272   1.083       .  S
C260        C261   1.402       .  A
C260        C263   1.432       .  S
C261        C262   1.401       .  A
C261        H273   1.084       .  S
C262        H274   1.082       .  S
C263        C264   1.201   1_455  T
C264        C265   1.431       .  S
C265        C266   1.394       .  A
C265        C270   1.402       .  A
C266        C267   1.388       .  A
C266        H275   1.084       .  S
C267        C268   1.407       .  A
C267        H276   1.083       .  S
C268        C269   1.405       .  A
C269        C270   1.402       .  A
C269        H277   1.083       .  S
C270        H278   1.083       .  S
C279        C280   1.411       .  A
C279        C284   1.409       .  A
C280        C281   1.398       .  A
C280        H293   1.082       .  S
C281        C282   1.398       .  A
C281        H294   1.085       .  S
C282        C283   1.406       .  A
C282        C285   1.454       .  S
C283        C284   1.410       .  A
C283        H295   1.082       .  S
C284        H296   1.084       .  S
C285        C286   1.215       .  T
C286        C287   1.454       .  S
C287        C288   1.405       .  A
C287        C292   1.400       .  A
C288        C289   1.408       .  A
C288        H297   1.082       .  S
C289        C290   1.408       .  A
C289        H298   1.084       .  S
C290        C291   1.409       .  A
C291        C292   1.400       .  A
C291        H299   1.082       .  S
C292        H300   1.084       .  S
C301        C302   1.410       .  A
C301        C306   1.410       .  A
C302        C303   1.402       .  A
C302        H315   1.083       .  S
C303        C304   1.401       .  A
C303        H316   1.083       .  S
C304        C305   1.405       .  A
C304        C307   1.457       .  S
C305        C306   1.409       .  A
C305        H317   1.084       .  S
C306        H318   1.082       .  S
C307        C308   1.216       .  T
C308        C309   1.457       .  S
C309        C310   1.400       .  A
C309        C314   1.405       .  A
C310        C311   1.402       .  A
C310        H319   1.083       .  S
C311        C312   1.411       .  A
C311        H320   1.083       .  S
C312        C313   1.409       .  A
C313        C314   1.409       .  A
C313        H321   1.082       .  S
C314        H322   1.083       .  S
C323        C324   1.410       .  A
C323        C328   1.409       .  A
C324        C325   1.398       .  A
C324        H337   1.082       .  S
C325        C326   1.398       .  A
C325        H338   1.085       .  S
C326        C327   1.406       .  A
C326        C329   1.453       .  S
C327        C328   1.409       .  A
C327        H339   1.082       .  S
C328        H340   1.084       .  S
C329        C330   1.214       .  T
C330        C331   1.453       .  S
C331        C332   1.405       .  A
C331        C336   1.399       .  A
C332        C333   1.408       .  A
C332        H341   1.082       .  S
C333        C334   1.408       .  A
C333        H342   1.084       .  S
C334        C335   1.410       .  A
C335        C336   1.399       .  A
C335        H343   1.082       .  S
C336        H344   1.085       .  S
C345        C346   1.405       .  A
C345        C350   1.407       .  A
C346        C347   1.404       .  A
C346        H359   1.082       .  S
C347        C348   1.404       .  A
C347        H360   1.084       .  S
C348        C349   1.395       .  A
C348        C351   1.437       .  S
C349        C350   1.391       .  A
C349        H361   1.084       .  S
C350        H362   1.084       .  S
C351        C352   1.205       .  T
C352        C353   1.438   1_545  S
C353        C354   1.402       .  A
C353        C358   1.397       .  A
C354        C355   1.402       .  A
C354        H363   1.084       .  S
C355        C356   1.405       .  A
C355        H364   1.083       .  S
C356        C357   1.405       .  A
C357        C358   1.394       .  A
C357        H365   1.084       .  S
C358        H366   1.084   1_565  S
C367        C368   1.407       .  A
C367        C372   1.410       .  A
C368        C369   1.404       .  A
C368        H381   1.082       .  S
C369        C370   1.403       .  A
C369        H382   1.084       .  S
C370        C371   1.398       .  A
C370        C373   1.445       .  S
C371        C372   1.397       .  A
C371        H383   1.083       .  S
C372        H384   1.083       .  S
C373        C374   1.209       .  T
C374        C375   1.445       .  S
C375        C376   1.403       .  A
C375        C380   1.399       .  A
C376        C377   1.403       .  A
C376        H385   1.084       .  S
C377        C378   1.406       .  A
C377        H386   1.083       .  S
C378        C379   1.408       .  A
C379        C380   1.398       .  A
C379        H387   1.083       .  S
C380        H388   1.083       .  S
C389        C390   1.410       .  A
C389        C394   1.409       .  A
C390        C391   1.400       .  A
C390        H403   1.083       .  S
C391        C392   1.400       .  A
C391        H404   1.083       .  S
C392        C393   1.405       .  A
C392        C395   1.455       .  S
C393        C394   1.408       .  A
C393        H405   1.084       .  S
C394        H406   1.082       .  S
C395        C396   1.215       .  T
C396        C397   1.455       .  S
C397        C398   1.399       .  A
C397        C402   1.405       .  A
C398        C399   1.400       .  A
C398        H407   1.083       .  S
C399        C400   1.411       .  A
C399        H408   1.083       .  S
C400        C401   1.409       .  A
C401        C402   1.409       .  A
C401        H409   1.082       .  S
C402        H410   1.084       .  S
C411        C412   1.409       .  A
C411        C416   1.406       .  A
C412        C413   1.392       .  A
C412        H425   1.083       .  S
C413        C414   1.395       .  A
C413        H426   1.084   1_565  S
C414        C415   1.404       .  A
C414        C417   1.439   1_565  S
C415        C416   1.404       .  A
C415        H427   1.083       .  S
C416        H428   1.083       .  S
C417        C418   1.206       .  T
C418        C419   1.439       .  S
C419        C420   1.397       .  A
C419        C424   1.402       .  A
C420        C421   1.395       .  A
C420        H429   1.084       .  S
C421        C422   1.408       .  A
C421        H430   1.083       .  S
C422        C423   1.406       .  A
C423        C424   1.402       .  A
C423        H431   1.083       .  S
C424        H432   1.083       .  S
C433        C434   1.406       .  A
C433        C438   1.408       .  A
C434        C435   1.402       .  A
C434        H447   1.082       .  S
C435        C436   1.402       .  A
C435        H448   1.084       .  S
C436        C437   1.394       .  A
C436        C439   1.433       .  S
C437        C438   1.389       .  A
C437        H449   1.083       .  S
C438        H450   1.084       .  S
C439        C440   1.202       .  T
C440        C441   1.433       .  S
C441        C442   1.403       .  A
C441        C446   1.393       .  A
C442        C443   1.402       .  A
C442        H451   1.084       .  S
C443        C444   1.405       .  A
C443        H452   1.082       .  S
C444        C445   1.409       .  A
C445        C446   1.389       .  A
C445        H453   1.083       .  S
C446        H454   1.084       .  S
C455        C456   1.409       .  A
C455        C460   1.409       .  A
C456        C457   1.410       .  A
C456        H469   1.084       .  S
C457        C458   1.406       .  A
C457        H470   1.082       .  S
C458        C459   1.399       .  A
C458        C461   1.454       .  S
C459        C460   1.399       .  A
C459        H471   1.084       .  S
C460        H472   1.082       .  S
C461        C462   1.215       .  T
C462        C463   1.454       .  S
C463        C464   1.398       .  A
C463        C468   1.406       .  A
C464        C465   1.398       .  A
C464        H473   1.085       .  S
C465        C466   1.410       .  A
C465        H474   1.082       .  S
C466        C467   1.409       .  A
C467        C468   1.410       .  A
C467        H475   1.084       .  S
C468        H476   1.082       .  S
C477        C478   1.409       .  A
C477        C482   1.409       .  A
C478        C479   1.405       .  A
C478        H491   1.082       .  S
C479        C480   1.403       .  A
C479        H492   1.084       .  S
C480        C481   1.400       .  A
C480        C483   1.450       .  S
C481        C482   1.400       .  A
C481        H493   1.083       .  S
C482        H494   1.083       .  S
C483        C484   1.212       .  T
C484        C485   1.450       .  S
C485        C486   1.404       .  A
C485        C490   1.399       .  A
C486        C487   1.406       .  A
C486        H495   1.084       .  S
C487        C488   1.408       .  A
C487        H496   1.082       .  S
C488        C489   1.411       .  A
C489        C490   1.400       .  A
C489        H497   1.083       .  S
C490        H498   1.083       .  S
C499        C500   1.411       .  A
C499        C504   1.409       .  A
C500        C501   1.401       .  A
C500        H513   1.083       .  S
C501        C502   1.400       .  A
C501        H514   1.083       .  S
C502        C503   1.405       .  A
C502        C505   1.455       .  S
C503        C504   1.408       .  A
C503        H515   1.084       .  S
C504        H516   1.082       .  S
C505        C506   1.215       .  T
C506        C507   1.455       .  S
C507        C508   1.400       .  A
C507        C512   1.405       .  A
C508        C509   1.401       .  A
C508        H517   1.083       .  S
C509        C510   1.411       .  A
C509        H518   1.083       .  S
C510        C511   1.409       .  A
C511        C512   1.408       .  A
C511        H519   1.082       .  S
C512        H520   1.084       .  S
C521        C522   1.409       .  A
C521        C526   1.407       .  A
C522        C523   1.399       .  A
C522        H535   1.082       .  S
C523        C524   1.400       .  A
C523        H536   1.084       .  S
C524        C525   1.403       .  A
C524        C527   1.450       .  S
C525        C526   1.405       .  A
C525        H537   1.082       .  S
C526        H538   1.084       .  S
C527        C528   1.212   1_556  T
C528        C529   1.450       .  S
C529        C530   1.405       .  A
C529        C534   1.398       .  A
C530        C531   1.408       .  A
C530        H539   1.082       .  S
C531        C532   1.408       .  A
C531        H540   1.084       .  S
C532        C533   1.409       .  A
C533        C534   1.397       .  A
C533        H541   1.082       .  S
C534        H542   1.085       .  S
C543        C544   1.409       .  A
C543        C548   1.405       .  A
C544        C545   1.392       .  A
C544        H557   1.083       .  S
C545        C546   1.395       .  A
C545        H558   1.084       .  S
C546        C547   1.403       .  A
C546        C549   1.437   1_655  S
C547        C548   1.402       .  A
C547        H559   1.083       .  S
C548        H560   1.083       .  S
C549        C550   1.204       .  T
C550        C551   1.437       .  S
C551        C552   1.396       .  A
C551        C556   1.402       .  A
C552        C553   1.394       .  A
C552        H561   1.084       .  S
C553        C554   1.407       .  A
C553        H562   1.083       .  S
C554        C555   1.405       .  A
C555        C556   1.401       .  A
C555        H563   1.083       .  S
C556        H564   1.084       .  S
C565        C566   1.406       .  A
C565        C570   1.406       .  A
C566        C567   1.390       .  A
C566        H579   1.084       .  S
C567        C568   1.395       .  A
C567        H580   1.083       .  S
C568        C569   1.402       .  A
C568        C571   1.434       .  S
C569        C570   1.402       .  A
C569        H581   1.084       .  S
C570        H582   1.082       .  S
C571        C572   1.202       .  T
C572        C573   1.433       .  S
C573        C574   1.393       .  A
C573        C578   1.403       .  A
C574        C575   1.387       .  A
C574        H583   1.084       .  S
C575        C576   1.409       .  A
C575        H584   1.083       .  S
C576        C577   1.406       .  A
C577        C578   1.404       .  A
C577        H585   1.083       .  S
C578        H586   1.083       .  S
C587        C588   1.411       .  A
C587        C592   1.409       .  A
C588        C589   1.400       .  A
C588        H601   1.084       .  S
C589        C590   1.399       .  A
C589        H602   1.083       .  S
C590        C591   1.406       .  A
C590        C593   1.456       .  S
C591        C592   1.409       .  A
C591        H603   1.084       .  S
C592        H604   1.082       .  S
C593        C594   1.216       .  T
C594        C595   1.456       .  S
C595        C596   1.405       .  A
C595        C600   1.400       .  A
C596        C597   1.408       .  A
C596        H605   1.084       .  S
C597        C598   1.409       .  A
C597        H606   1.082       .  S
C598        C599   1.411       .  A
C599        C600   1.402       .  A
C599        H607   1.083       .  S
C600        H608   1.083       .  S
C609        C610   1.411       .  A
C609        C614   1.409       .  A
C610        C611   1.403       .  A
C610        H623   1.083       .  S
C611        C612   1.401       .  A
C611        H624   1.083       .  S
C612        C613   1.405       .  A
C612        C615   1.458       .  S
C613        C614   1.409       .  A
C613        H625   1.083       .  S
C614        H626   1.082       .  S
C615        C616   1.217       .  T
C616        C617   1.458       .  S
C617        C618   1.401       .  A
C617        C622   1.405       .  A
C618        C619   1.404       .  A
C618        H627   1.083       .  S
C619        C620   1.411       .  A
C619        H628   1.083       .  S
C620        C621   1.409       .  A
C621        C622   1.408       .  A
C621        H629   1.082       .  S
C622        H630   1.084       .  S
C631        C632   1.405       .  A
C631        C636   1.408       .  A
C632        C633   1.404       .  A
C632        H645   1.082       .  S
C633        C634   1.404       .  A
C633        H646   1.084       .  S
C634        C635   1.395       .  A
C634        C637   1.438       .  S
C635        C636   1.391       .  A
C635        H647   1.083       .  S
C636        H648   1.084       .  S
C637        C638   1.205       .  T
C638        C639   1.438   1_455  S
C639        C640   1.403       .  A
C639        C644   1.396       .  A
C640        C641   1.403       .  A
C640        H649   1.084       .  S
C641        C642   1.406       .  A
C641        H650   1.083       .  S
C642        C643   1.407       .  A
C643        C644   1.393       .  A
C643        H651   1.084       .  S
C644        H652   1.084       .  S
C653        C654   1.408       .  A
C653        C658   1.406       .  A
C654        C655   1.396       .  A
C654        H667   1.083       .  S
C655        C656   1.397       .  A
C655        H668   1.084       .  S
C656        C657   1.403       .  A
C656        C659   1.442       .  S
C657        C658   1.403       .  A
C657        H669   1.083       .  S
C658        H670   1.083       .  S
C659        C660   1.208       .  T
C660        C661   1.442       .  S
C661        C662   1.404       .  A
C661        C666   1.396       .  A
C662        C663   1.404       .  A
C662        H671   1.083       .  S
C663        C664   1.407       .  A
C663        H672   1.083       .  S
C664        C665   1.409       .  A
C665        C666   1.394       .  A
C665        H673   1.083       .  S
C666        H674   1.084       .  S
C675        C676   1.409       .  A
C675        C680   1.407       .  A
C676        C677   1.401       .  A
C676        H689   1.082       .  S
C677        C678   1.401       .  A
C677        H690   1.084       .  S
C678        C679   1.405       .  A
C678        C681   1.455       .  S
C679        C680   1.408       .  A
C679        H691   1.082       .  S
C680        H692   1.084       .  S
C681        C682   1.215   1_554  T
C682        C683   1.455       .  S
C683        C684   1.406       .  A
C683        C688   1.400       .  A
C684        C685   1.409       .  A
C684        H693   1.082       .  S
C685        C686   1.407       .  A
C685        H694   1.084       .  S
C686        C687   1.409       .  A
C687        C688   1.400       .  A
C687        H695   1.082       .  S
C688        H696   1.084       .  S
