geometry optimzed in LAMMPS
_audit_creation_date              2020-12-01 
_audit_creation_method            'lammps2cif' 
_symmetry_space_group_name_H-M    'P1' 
_symmetry_Int_Tables_number       1 
_symmetry_cell_setting            triclinic 
loop_ 
_symmetry_equiv_pos_as_xyz 
  x,y,z 
_cell_length_a                    62.29296249 
_cell_length_b                    63.55726138825934 
_cell_length_c                    63.29277872520935 
_cell_angle_alpha                 90.04005569035292 
_cell_angle_beta                  89.90795441646948 
_cell_angle_gamma                 90.12613663342637 
loop_ 
_atom_site_label 
_atom_site_type_symbol 
_atom_site_fract_x 
_atom_site_fract_y 
_atom_site_fract_z 
_atom_site_charge 
O1          O  0.05424068  0.65335359  0.86153831    -0.56600
C2          C  0.02966283  0.70401247  0.80253692     0.76100
O3          O  0.03766516  0.63596454  0.80846272    -0.57700
C4          C  0.06478799  0.66946383  0.86694864     0.76000
C5          C  0.99481357  0.66536587  0.84904615     0.78400
Cd6        Cd  0.03705018  0.66867392  0.83029672     1.37500
O7          O  0.03735973  0.70682996  0.82085315    -0.56600
O8          O  0.00553229  0.64886110  0.84529376    -0.55400
C9          C  0.05675934  0.63845031  0.80193040     0.78400
O10         O  0.00330432  0.68254004  0.84360891    -0.57700
O11         O  0.02645147  0.68512723  0.79697637    -0.56200
O12         O  0.06300380  0.68547072  0.85517725    -0.56200
O13         O  0.06648488  0.65475375  0.80837857    -0.55400
O14         O  0.20161628  0.52834658  0.68355611    -0.56600
C15         C  0.15962173  0.55705640  0.63895063     0.76100
O16         O  0.14431657  0.49364651  0.66160005    -0.57700
C17         C  0.19860113  0.51716023  0.69990852     0.76000
C18         C  0.13889280  0.54982896  0.70418524     0.78400
Cd19       Cd  0.16320056  0.52696502  0.67281088     1.37500
O20         O  0.17759810  0.55272372  0.64726006    -0.56600
O21         O  0.15719541  0.55537982  0.69751661    -0.55400
C22         C  0.16029902  0.48691878  0.65107998     0.78400
O23         O  0.13119337  0.53289242  0.69653627    -0.57700
O24         O  0.14343482  0.54731089  0.64608216    -0.56200
O25         O  0.17964249  0.51075371  0.70328873    -0.56200
O26         O  0.17674983  0.49857175  0.65078443    -0.55400
O27         O  0.97398572  0.82275792  0.70140057    -0.56600
C28         C  0.94165261  0.87006706  0.66483830     0.76100
O29         O  0.00454495  0.84798744  0.64389661    -0.57700
C30         C  0.98470675  0.80649502  0.69647180     0.76000
C31         C  0.95011388  0.80513527  0.63869378     0.78400
Cd32       Cd  0.97220870  0.83580355  0.66417697     1.37500
O33         O  0.94585519  0.85970053  0.68143430    -0.56600
O34         O  0.94462150  0.80982917  0.65735900    -0.55400
C35         C  0.01276504  0.85714923  0.65978765     0.78400
O36         O  0.96608264  0.81503567  0.63104511    -0.57700
O37         O  0.95129685  0.86445131  0.64816825    -0.56200
O38         O  0.98950667  0.80427063  0.67717338    -0.56200
O39         O  0.00223968  0.85632604  0.67683632    -0.55400
O40         O  0.79828997  0.68980628  0.53694976    -0.56600
C41         C  0.83720238  0.64258493  0.56244890     0.76100
O42         O  0.85371486  0.66434276  0.50156837    -0.57700
C43         C  0.80162018  0.70749921  0.52830793     0.76000
C44         C  0.86779120  0.70492673  0.55400485     0.78400
Cd45       Cd  0.83624354  0.67808063  0.53432071     1.37500
O46         O  0.82145167  0.65519791  0.56231833    -0.56600
O47         O  0.85232747  0.69661034  0.56397423    -0.55400
C48         C  0.83666227  0.65594974  0.49450975     0.78400
O49         O  0.86917498  0.70066830  0.53444262    -0.57700
O50         O  0.85241693  0.64652605  0.54979773    -0.56200
O51         O  0.82078752  0.71165034  0.52312097    -0.56200
O52         O  0.81979344  0.65881986  0.50519399    -0.55400
O53         O  0.31703760  0.47224616  0.80749466    -0.56600
C54         C  0.36511097  0.44468040  0.84330117     0.76100
O55         O  0.34343322  0.50545749  0.86248594    -0.57700
C56         C  0.29932403  0.48115608  0.81160364     0.76000
C57         C  0.30072714  0.45043797  0.87171297     0.78400
Cd58       Cd  0.32954304  0.47309440  0.84445218     1.37500
O59         O  0.35366536  0.44796989  0.82711778    -0.56600
O60         O  0.30770937  0.44347763  0.85429315    -0.55400
C61         C  0.35089232  0.51310514  0.84543112     0.78400
O62         O  0.30737553  0.46851552  0.87739312    -0.57700
O63         O  0.36011684  0.45455352  0.85995856    -0.56200
O64         O  0.29578383  0.48611118  0.83066223    -0.56200
O65         O  0.34790320  0.50255208  0.82881500    -0.55400
O66         O  0.18333293  0.29962238  0.97750963    -0.56600
C67         C  0.13759992  0.33794265  0.94531360     0.76100
O68         O  0.15537370  0.35708202  0.00662449    -0.57700
C69         C  0.20121224  0.30322977  0.98640289     0.76000
C70         C  0.20047468  0.36736262  0.95684174     0.78400
Cd71       Cd  0.17180454  0.33732993  0.97633452     1.37500
O72         O  0.14979883  0.32208111  0.94706705    -0.56600
O73         O  0.19422624  0.35068667  0.94778233    -0.55400
C74         C  0.14830463  0.34070475  0.01572795     0.78400
O75         O  0.19369161  0.37040285  0.97552140    -0.57700
O76         O  0.14094911  0.35291816  0.95802180    -0.56200
O77         O  0.20565894  0.32235719  0.98995614    -0.56200
O78         O  0.15261431  0.32335330  0.00698660    -0.55400
O79         O  0.47599259  0.31665812  0.19183498    -0.56600
C80         C  0.44659222  0.36187955  0.15548157     0.76100
O81         O  0.50876222  0.34723354  0.16812443    -0.57700
C82         C  0.48635015  0.29975761  0.18892711     0.76000
C83         C  0.45875723  0.29765067  0.12641640     0.78400
Cd84       Cd  0.47781834  0.32816302  0.15434828     1.37500
O85         O  0.45261572  0.35239065  0.17199416    -0.56600
O86         O  0.45146202  0.30181777  0.14460960    -0.55400
C87         C  0.51884572  0.34953771  0.15098119     0.78400
O88         O  0.47509474  0.30804210  0.12043723    -0.57700
O89         O  0.45456423  0.35555439  0.13824218    -0.56200
O90         O  0.49244244  0.29599444  0.17021311    -0.56200
O91         O  0.51018381  0.34168406  0.13466449    -0.55400
O92         O  0.30440608  0.18182482  0.03381913    -0.56600
C93         C  0.33840007  0.13141000  0.06235150     0.76100
O94         O  0.36018477  0.14971881  0.00243589    -0.57700
C95         C  0.31009638  0.19958813  0.02656183     0.76000
C96         C  0.37329204  0.19081875  0.05466919     0.78400
Cd97       Cd  0.34114900  0.16626283  0.03329794     1.37500
O98         O  0.32240840  0.14351240  0.05988094    -0.56600
O99         O  0.35757971  0.18222126  0.06398087    -0.55400
C100        C  0.34308093  0.14355842  0.99348848     0.78400
O101        O  0.37488575  0.18767650  0.03489566    -0.57700
O102        O  0.35503825  0.13568239  0.05173794    -0.56200
O103        O  0.32989721  0.20196192  0.02278276    -0.56200
O104        O  0.32569651  0.14858109  0.00242528    -0.55400
O105        O  0.70129988  0.83422517  0.48810424    -0.56600
C106        C  0.63347035  0.84730674  0.44284412     0.76100
O107        O  0.65151178  0.86393848  0.50572966    -0.57700
C108        C  0.69823055  0.81466670  0.48595749     0.76000
C109        C  0.69639568  0.87375614  0.45457488     0.78400
Cd110      Cd  0.66673294  0.84565018  0.47441369     1.37500
O111        O  0.64459932  0.83072532  0.44506793    -0.56600
O112        O  0.69146155  0.85586395  0.44719745    -0.55400
C113        C  0.64271162  0.84751560  0.51320990     0.78400
O114        O  0.68726881  0.87929513  0.47168712    -0.57700
O115        O  0.63783772  0.86249202  0.45498702    -0.56200
O116        O  0.68039767  0.80900838  0.47803140    -0.56200
O117        O  0.64543436  0.83060990  0.50304273    -0.55400
O118        O  0.81895771  0.97148063  0.30012400    -0.56600
C119        C  0.86537776  0.94129551  0.33779172     0.76100
O120        O  0.84123528  0.99983068  0.36060650    -0.57700
C121        C  0.79972594  0.97668139  0.30407392     0.76000
C122        C  0.79973286  0.94759570  0.36516878     0.78400
Cd123      Cd  0.82921786  0.96971533  0.33816935     1.37500
O124        O  0.85586865  0.94626347  0.32084314    -0.56600
O125        O  0.80732109  0.93968511  0.34839042    -0.55400
C126        C  0.84820671  0.01057837  0.34519924     0.78400
O127        O  0.80581555  0.96610766  0.36982217    -0.57700
O128        O  0.85830739  0.94950957  0.35458982    -0.56200
O129        O  0.79459257  0.97861961  0.32329536    -0.56200
O130        O  0.84553619  0.00283037  0.32702526    -0.55400
O131        O  0.70017844  0.03016582  0.18027804    -0.56600
C132        C  0.66571866  0.05439427  0.13122929     0.76100
O133        O  0.64299984  0.99622894  0.15020836    -0.57700
C134        C  0.69702679  0.01866379  0.19635946     0.76000
C135        C  0.63440343  0.04734267  0.19585095     0.78400
Cd136      Cd  0.66309570  0.02636582  0.16688408     1.37500
O137        O  0.68251569  0.04775427  0.14024110    -0.56600
O138        O  0.65193854  0.05527820  0.18958678    -0.55400
C139        C  0.65997332  0.98616917  0.14570740     0.78400
O140        O  0.62954460  0.02936533  0.18846479    -0.57700
O141        O  0.64799490  0.04827589  0.13881240    -0.56200
O142        O  0.67824881  0.01140838  0.19891282    -0.56200
O143        O  0.67740678  0.99418733  0.15184634    -0.55400
O144        O  0.53051335  0.19851316  0.31208778    -0.56600
C145        C  0.55783064  0.16177936  0.36263568     0.76100
O146        O  0.49748459  0.14107747  0.33235235    -0.57700
C147        C  0.52452870  0.19346240  0.29360738     0.76000
C148        C  0.55657128  0.13422285  0.29800904     0.78400
Cd149      Cd  0.53153754  0.16131372  0.32484703     1.37500
O150        O  0.55512014  0.17846792  0.35198579    -0.56600
O151        O  0.56335476  0.15183685  0.30459490    -0.55400
C152        C  0.48855473  0.15652239  0.34151007     0.78400
O153        O  0.53809950  0.12849004  0.30436209    -0.57700
O154        O  0.54859830  0.14541305  0.35578153    -0.56200
O155        O  0.52207026  0.17406859  0.28995370    -0.56200
O156        O  0.49923335  0.17341509  0.34229461    -0.55400
O157        O  0.55715953  0.35830089  0.83023727    -0.56600
C158        C  0.52345546  0.30347491  0.81052124     0.76100
O159        O  0.53319574  0.30961139  0.87586820    -0.57700
C160        C  0.55525299  0.37143758  0.84525323     0.76000
C161        C  0.48842127  0.35148471  0.84981786     0.78400
Cd162      Cd  0.53006485  0.33326160  0.84462778     1.37500
O163        O  0.52988729  0.32198104  0.80639745    -0.56600
O164        O  0.49748492  0.34954102  0.83205278    -0.55400
C165        C  0.55345085  0.30805850  0.87443153     0.78400
O166        O  0.49809098  0.34380418  0.86563311    -0.57700
O167        O  0.52066110  0.29910888  0.82980673    -0.56200
O168        O  0.54180989  0.36692158  0.85952396    -0.56200
O169        O  0.56241910  0.31819661  0.85964694    -0.55400
O170        O  0.67369657  0.14789581  0.94494642    -0.56600
C171        C  0.69591590  0.19883221  0.98047612     0.76100
O172        O  0.62502979  0.19322974  0.97301979    -0.57700
C173        C  0.65567370  0.13999314  0.94008860     0.76000
C174        C  0.65738971  0.14865041  0.01001928     0.78400
Cd175      Cd  0.65930736  0.17263212  0.97172593     1.37500
O176        O  0.69237278  0.19228970  0.96186852    -0.56600
O177        O  0.67381206  0.14892222  0.99823220    -0.55400
C178        C  0.63115889  0.20592598  0.95876730     0.78400
O179        O  0.64150277  0.15969605  0.00421626    -0.57700
O180        O  0.68306995  0.19272310  0.99471277    -0.56200
O181        O  0.63948177  0.14735319  0.94953808    -0.56200
O182        O  0.64974482  0.20311982  0.95132135    -0.55400
O183        O  0.65240776  0.44652635  0.18383078    -0.56600
C184        C  0.70685966  0.48051454  0.20278199     0.76100
O185        O  0.70194962  0.44337354  0.15814660    -0.57700
C186        C  0.64230446  0.44290078  0.16683896     0.76000
C187        C  0.65689917  0.51248778  0.16708137     0.78400
Cd188      Cd  0.67807266  0.47194099  0.16817737     1.37500
O189        O  0.70707785  0.49126345  0.18595664    -0.56600
O190        O  0.65669798  0.50048170  0.18299138    -0.55400
C191        C  0.70775759  0.45046276  0.14038621     0.78400
O192        O  0.66660203  0.50569475  0.15077059    -0.57700
O193        O  0.69347575  0.46547629  0.20367934    -0.56200
O194        O  0.64827070  0.45312786  0.15071095    -0.56200
O195        O  0.69995976  0.46811342  0.13499517    -0.55400
O196        O  0.81579805  0.29638057  0.04738735    -0.56600
C197        C  0.87136253  0.32735060  0.07003415     0.76100
O198        O  0.85654783  0.31903635  0.01033000    -0.57700
C199        C  0.80577489  0.29678796  0.02998412     0.76000
C200        C  0.80629123  0.35787873  0.06358917     0.78400
Cd201      Cd  0.83541554  0.32999607  0.04128003     1.37500
O202        O  0.86131908  0.31090138  0.06444785    -0.56600
O203        O  0.81473609  0.36365778  0.04627648    -0.55400
C204        C  0.85719833  0.33681438  0.00134622     0.78400
O205        O  0.81095273  0.33960832  0.06987145    -0.57700
O206        O  0.86514609  0.34445733  0.06198121    -0.56200
O207        O  0.80967613  0.31219065  0.01793047    -0.56200
O208        O  0.84786811  0.35184836  0.01083363    -0.55400
O209        O  0.44549058  0.17920212  0.65335134    -0.56600
C210        C  0.48382923  0.20079747  0.70216136     0.76100
O211        O  0.47508059  0.13146466  0.69524528    -0.57700
C212        C  0.44550470  0.16411352  0.64027755     0.76000
C213        C  0.51705107  0.16166949  0.65356219     0.78400
Cd214      Cd  0.47579930  0.16518726  0.67486533     1.37500
O215        O  0.48893271  0.18213022  0.70693316    -0.56600
O216        O  0.50815149  0.14568464  0.66175175    -0.55400
C217        C  0.45773797  0.13537171  0.70497180     0.78400
O218        O  0.50734217  0.17896023  0.65584313    -0.57700
O219        O  0.47472234  0.20337913  0.68445516    -0.56200
O220        O  0.45927829  0.14988653  0.64326986    -0.56200
O221        O  0.44878825  0.15268569  0.70061686    -0.55400
O222        O  0.33377300  0.04893475  0.85826746    -0.56600
C223        C  0.31848987  0.01478206  0.80144597     0.76100
O224        O  0.38495584  0.02979539  0.81201479    -0.57700
C225        C  0.35019545  0.05061336  0.87002035     0.76000
C226        C  0.35309661  0.98285616  0.85276715     0.78400
Cd227      Cd  0.35080788  0.02367582  0.83302107     1.37500
O228        O  0.31407198  0.02610166  0.81741307    -0.56600
O229        O  0.33588503  0.99327055  0.85138375    -0.55400
C230        C  0.37956770  0.04846853  0.80719031     0.78400
O231        O  0.36977977  0.99113345  0.84469954    -0.57700
O232        O  0.33754084  0.00802102  0.80016508    -0.56200
O233        O  0.36627637  0.03956593  0.86497117    -0.56200
O234        O  0.36178232  0.05483250  0.81434480    -0.55400
O235        O  0.35303330  0.82419032  0.55915018    -0.56600
C236        C  0.30302627  0.80423333  0.51962656     0.76100
O237        O  0.30645354  0.87130793  0.53421188    -0.57700
C238        C  0.36476298  0.84042549  0.56087926     0.76000
C239        C  0.35071004  0.84456746  0.49049038     0.78400
Cd240      Cd  0.32994383  0.83930720  0.53075281     1.37500
O241        O  0.32084291  0.80130912  0.52880832    -0.56600
O242        O  0.35085253  0.82748778  0.50067634    -0.55400
C243        C  0.29916654  0.86568536  0.55209392     0.78400
O244        O  0.34113468  0.85997273  0.49905438    -0.57700
O245        O  0.29769990  0.82310945  0.51614883    -0.56200
O246        O  0.36051395  0.85559350  0.54868241    -0.56200
O247        O  0.30600916  0.84842981  0.55935167    -0.55400
O248        O  0.18546084  0.98330918  0.70197300    -0.56600
C249        C  0.13963673  0.94658226  0.66838826     0.76100
O250        O  0.16048083  0.00944573  0.67723377    -0.57700
C251        C  0.20548701  0.98366337  0.69862437     0.76000
C252        C  0.20263353  0.95501601  0.63484545     0.78400
Cd253      Cd  0.17501459  0.97593637  0.66489657     1.37500
O254        O  0.15055701  0.95158059  0.68447799    -0.56600
O255        O  0.19666877  0.94671727  0.65208066    -0.55400
C256        C  0.15506475  0.01687750  0.65958009     0.78400
O257        O  0.19595430  0.97354311  0.63117566    -0.57700
O258        O  0.14500251  0.95511115  0.65117868    -0.56200
O259        O  0.21151789  0.97984500  0.67992247    -0.56200
O260        O  0.15973815  0.00584950  0.64352929    -0.55400
O261        O  0.18655697  0.64128672  0.44851940    -0.56600
C262        C  0.19778767  0.69824858  0.47830847     0.76100
O263        O  0.13235119  0.68468403  0.47027483    -0.57700
C264        C  0.17077500  0.62908635  0.44531610     0.76000
C265        C  0.16431570  0.64584471  0.51384221     0.78400
Cd266      Cd  0.16679363  0.66499520  0.47272596     1.37500
O267        O  0.17803862  0.70049213  0.48228569    -0.56600
O268        O  0.14730629  0.65172330  0.50463160    -0.55400
C269        C  0.13488404  0.68879023  0.45080052     0.78400
O270        O  0.18176370  0.64928424  0.50427965    -0.57700
O271        O  0.20357774  0.68048242  0.47122061    -0.56200
O272        O  0.15346362  0.63348690  0.45477112    -0.56200
O273        O  0.15154829  0.68154366  0.44199026    -0.55400
O274        O  0.04602922  0.84624081  0.36811803    -0.56600
C275        C  0.01191507  0.79264719  0.31521552     0.76100
O276        O  0.02703299  0.79896893  0.38361378    -0.57700
C277        C  0.05823780  0.85047741  0.35271295     0.76000
C278        C  0.98643910  0.84493274  0.35230312     0.78400
Cd279      Cd  0.02452808  0.81933955  0.34997364     1.37500
O280        O  0.02408906  0.80843223  0.31239244    -0.56600
O281        O  0.99896743  0.84483179  0.33659103    -0.55400
C282        C  0.04284335  0.78812684  0.37713768     0.78400
O283        O  0.99135956  0.83300485  0.36762887    -0.57700
O284        O  0.00592507  0.78908791  0.33400754    -0.56200
O285        O  0.05520971  0.84005697  0.33587902    -0.56200
O286        O  0.04946011  0.79174621  0.35857939    -0.55400
O287        O  0.82856504  0.55538673  0.36412925    -0.56600
C288        C  0.81009599  0.52366913  0.31021837     0.76100
O289        O  0.88032888  0.53286262  0.31602417    -0.57700
C290        C  0.84587355  0.56182578  0.37237840     0.76000
C291        C  0.84701546  0.49170147  0.35945922     0.78400
Cd292      Cd  0.84587771  0.53162638  0.33772927     1.37500
O293        O  0.81294482  0.54169241  0.31837370    -0.56600
O294        O  0.83022222  0.50259698  0.35735161    -0.55400
C295        C  0.87293352  0.54680865  0.30365743     0.78400
O296        O  0.86411647  0.49913402  0.35137058    -0.57700
O297        O  0.82325643  0.50942814  0.31535075    -0.56200
O298        O  0.86302592  0.55467024  0.36448860    -0.56200
O299        O  0.85425248  0.55333779  0.30762296    -0.55400
O300        O  0.94440996  0.67513072  0.15124680    -0.56600
C301        C  0.97152176  0.69059007  0.20725501     0.76100
O302        O  0.97489787  0.62585166  0.19642392    -0.57700
C303        C  0.94359249  0.65974569  0.13853679     0.76000
C304        C  0.01476758  0.65850639  0.15741964     0.78400
Cd305      Cd  0.97177056  0.65849518  0.17470847     1.37500
O306        O  0.97135800  0.69560845  0.18789207    -0.56600
O307        O  0.00491005  0.64140282  0.16081627    -0.55400
C308        C  0.95473913  0.62355707  0.19832055     0.78400
O309        O  0.00524385  0.67513358  0.16290794    -0.57700
O310        O  0.97094106  0.67114411  0.21133613    -0.56200
O311        O  0.95596878  0.64452279  0.14231310    -0.56200
O312        O  0.94306339  0.63691409  0.18899077    -0.55400
O313        O  0.68129207  0.95112695  0.84525014    -0.56600
C314        C  0.69198997  0.99384902  0.79264081     0.76100
O315        O  0.62714784  0.97368206  0.80656982    -0.57700
C316        C  0.66475675  0.94561109  0.85562967     0.76000
C317        C  0.65913094  0.01713187  0.84802912     0.78400
Cd318      Cd  0.66222297  0.97877087  0.82415129     1.37500
O319        O  0.69839033  0.98334042  0.80848469    -0.56600
O320        O  0.67641899  0.00716545  0.84526187    -0.55400
C321        C  0.63361746  0.95799277  0.79586564     0.78400
O322        O  0.64228414  0.00915232  0.84005818    -0.57700
O323        O  0.67198925  0.99694697  0.79119022    -0.56200
O324        O  0.64766239  0.95552719  0.85166516    -0.56200
O325        O  0.65299517  0.95250870  0.79823786    -0.55400
O326        O  0.55413282  0.82030928  0.65303621    -0.56600
C327        C  0.51896885  0.80377536  0.70645416     0.66500
O328        O  0.53287924  0.87005749  0.69749650    -0.57700
C329        C  0.55473099  0.83568134  0.64029364     0.76000
C330        C  0.48630312  0.83866114  0.65767998     0.78400
Cd331      Cd  0.52790818  0.83684514  0.67708841     1.37500
O332        O  0.51432151  0.82279672  0.71031859    -0.56600
O333        O  0.49551229  0.85553264  0.66352307    -0.55400
C334        C  0.55213198  0.86579943  0.70249053     0.78400
O335        O  0.49595724  0.82166808  0.66152609    -0.57700
O336        O  0.52873748  0.80004105  0.68926398    -0.56200
O337        O  0.54289115  0.85125170  0.64455876    -0.56200
O338        O  0.55949007  0.84836539  0.69618186    -0.55400
O339        O  0.82359805  0.04031934  0.69749758    -0.56600
C340        C  0.87163775  0.06889304  0.65986600     0.76100
O341        O  0.85122024  0.00893829  0.63998529    -0.57700
C342        C  0.80494751  0.03334954  0.69341283     0.76000
C343        C  0.80619153  0.05784120  0.63137942     0.78400
Cd344      Cd  0.83611615  0.03921487  0.66020578     1.37500
O345        O  0.86179197  0.06468414  0.67689977    -0.56600
O346        O  0.81300658  0.06719837  0.64771522    -0.55400
C347        C  0.85612195  0.99829810  0.65617303     0.78400
O348        O  0.81370369  0.03964544  0.62774606    -0.57700
O349        O  0.86508728  0.05954898  0.64348096    -0.56200
O350        O  0.80095829  0.02917188  0.67428183    -0.56200
O351        O  0.85136815  0.00630191  0.67383603    -0.55400
O352        O  0.69097353  0.20122882  0.52613157    -0.56600
C353        C  0.64015313  0.16872029  0.55802401     0.76100
O354        O  0.65417374  0.18181739  0.49804289    -0.57700
C355        C  0.70750860  0.19534149  0.51597803     0.76000
C356        C  0.70181354  0.13927155  0.55081412     0.78400
Cd357      Cd  0.67403979  0.16617790  0.52707634     1.37500
O358        O  0.65089031  0.18492463  0.55286261    -0.56600
O359        O  0.69609816  0.15741681  0.55676361    -0.55400
C360        C  0.64995824  0.16512953  0.48802213     0.78400
O361        O  0.69427905  0.13269107  0.53330952    -0.57700
O362        O  0.64488866  0.15174089  0.54867831    -0.56200
O363        O  0.70853402  0.17605967  0.51103147    -0.56200
O364        O  0.65727014  0.14811924  0.49573791    -0.55400
O365        O  0.47143024  0.68468238  0.81095212    -0.56600
C366        C  0.44202802  0.63792772  0.84821446     0.76100
O367        O  0.50208774  0.65852759  0.86852671    -0.57700
C368        C  0.47741647  0.70328135  0.81525848     0.76000
C369        C  0.44901851  0.70003264  0.87794453     0.78400
Cd370      Cd  0.47108818  0.67318179  0.84848077     1.37500
O371        O  0.44493999  0.64864409  0.83154994    -0.56600
O372        O  0.44010949  0.69156215  0.86212239    -0.55400
C373        C  0.51243301  0.65318524  0.85212915     0.78400
O374        O  0.46885306  0.69622836  0.88058121    -0.57700
O375        O  0.45266649  0.64334714  0.86429150    -0.56200
O376        O  0.48011715  0.70770341  0.83455450    -0.56200
O377        O  0.50412917  0.65792527  0.83459802    -0.55400
O378        O  0.32293807  0.85313637  0.95247532    -0.56600
C379        C  0.30741697  0.80330183  0.99356010     0.76100
O380        O  0.37630736  0.81415127  0.97795000    -0.57700
C381        C  0.33985348  0.86297972  0.94727443     0.76000
C382        C  0.33895644  0.85628530  0.01807744     0.78400
Cd383      Cd  0.34044445  0.83181382  0.98030479     1.37500
O384        O  0.30580626  0.81353209  0.97641299    -0.56600
O385        O  0.32377018  0.85549675  0.00490163    -0.55400
C386        C  0.37018405  0.80160595  0.96352603     0.78400
O387        O  0.35613733  0.84662856  0.01328314    -0.57700
O388        O  0.32426579  0.80618863  0.00432746    -0.56200
O389        O  0.35673325  0.85852649  0.95740443    -0.56200
O390        O  0.35086553  0.80312620  0.95763303    -0.55400
O391        O  0.36880283  0.55049766  0.18137685    -0.56600
C392        C  0.31443824  0.51998663  0.19664105     0.76100
O393        O  0.32027594  0.53681286  0.12834195    -0.57700
C394        C  0.37891266  0.55689308  0.16527611     0.76000
C395        C  0.36030605  0.48956907  0.15382634     0.78400
Cd396      Cd  0.34141939  0.53022779  0.16143308     1.37500
O397        O  0.31423655  0.50930047  0.17975956    -0.56600
O398        O  0.36035473  0.49868881  0.17156104    -0.55400
C399        C  0.31033296  0.55247092  0.13596269     0.78400
O400        O  0.35127346  0.49924507  0.13875403    -0.57700
O401        O  0.32699261  0.53567666  0.19724079    -0.56200
O402        O  0.37169055  0.55108883  0.14753422    -0.56200
O403        O  0.31502961  0.55760926  0.15467400    -0.55400
O404        O  0.19283025  0.69285170  0.04118425    -0.56600
C405        C  0.13974073  0.65727646  0.06465781     0.76100
O406        O  0.15816383  0.64057696  0.00342881    -0.57700
C407        C  0.20248698  0.69338090  0.02353777     0.76000
C408        C  0.20544707  0.63048766  0.05218382     0.78400
Cd409      Cd  0.17428917  0.65898257  0.03431415     1.37500
O410        O  0.14975999  0.67437432  0.06133200    -0.56600
O411        O  0.19792903  0.64623204  0.06185888    -0.55400
C412        C  0.14818842  0.65673001  0.99691053     0.78400
O413        O  0.19857621  0.62740980  0.03355578    -0.57700
O414        O  0.14574455  0.64144597  0.05410606    -0.56200
O415        O  0.19904860  0.67823248  0.01102152    -0.56200
O416        O  0.15035165  0.67340592  0.00763375    -0.55400
O417        O  0.83361941  0.35658703  0.45252199    -0.56600
C418        C  0.81371678  0.30361492  0.48327524     0.76100
O419        O  0.88226263  0.30934252  0.47947473    -0.57700
C420        C  0.85053293  0.36742395  0.45011137     0.76000
C421        C  0.85360374  0.35033218  0.52062353     0.78400
Cd422      Cd  0.84956207  0.33207174  0.47903226     1.37500
O423        O  0.81070768  0.32306430  0.48002380    -0.56600
O424        O  0.83568510  0.34544525  0.51271189    -0.55400
C425        C  0.87970579  0.30320782  0.46056104     0.78400
O426        O  0.87006548  0.34578954  0.50981821    -0.57700
O427        O  0.83300163  0.29751727  0.48414389    -0.56200
O428        O  0.86652518  0.36208721  0.46106675    -0.56200
O429        O  0.86374801  0.31062415  0.45071898    -0.55400
O430        O  0.99525284  0.19545304  0.33625647    -0.56600
C431        C  0.94252935  0.13315363  0.34675789     0.76100
O432        O  0.00452378  0.14569033  0.33822776    -0.57700
C433        C  0.99011586  0.19246709  0.31713532     0.76000
C434        C  0.95569611  0.19730486  0.37752371     0.78400
Cd435      Cd  0.97485176  0.16575875  0.35078280     1.37500
O436        O  0.94739592  0.14491864  0.33133424    -0.56600
O437        O  0.94878632  0.19230053  0.35942724    -0.55400
C438        C  0.01288969  0.14120738  0.35576459     0.78400
O439        O  0.97198711  0.18734551  0.38415800    -0.57700
O440        O  0.95213826  0.13677244  0.36397158    -0.56200
O441        O  0.97752648  0.17721477  0.31339815    -0.56200
O442        O  0.00382292  0.14852305  0.37216039    -0.55400
O443        O  0.20578773  0.45795914  0.30897137    -0.56600
C444        C  0.17160551  0.43828950  0.36154076     0.76100
O445        O  0.15222899  0.49962479  0.34130650    -0.57700
C446        C  0.21016523  0.47610915  0.30192544     0.76000
C447        C  0.14473915  0.45431735  0.29534657     0.78400
Cd448      Cd  0.17314546  0.46902543  0.32797316     1.37500
O449        O  0.18939928  0.44493197  0.35450522    -0.56600
O450        O  0.16347840  0.44731167  0.29801592    -0.55400
C451        C  0.16804051  0.50776565  0.35092885     0.78400
O452        O  0.13890626  0.46917961  0.30740085    -0.57700
O453        O  0.15495856  0.44564954  0.35300162    -0.56200
O454        O  0.19783712  0.49096267  0.30738525    -0.56200
O455        O  0.18584311  0.49837707  0.34929427    -0.55400
O456        O  0.03803160  0.29460975  0.19594395    -0.56600
C457        C  0.06177886  0.32959014  0.14428088     0.76100
O458        O  0.00284333  0.31869220  0.16744248    -0.57700
C459        C  0.03291483  0.29925132  0.21476438     0.76000
C460        C  0.06089481  0.36276014  0.20450084     0.78400
Cd461      Cd  0.03637144  0.33157355  0.18247312     1.37500
O462        O  0.05943326  0.31348257  0.15587351    -0.56600
O463        O  0.06908594  0.34641975  0.19643177    -0.55400
C464        C  0.99391062  0.33632504  0.16493770     0.78400
O465        O  0.04071686  0.36490776  0.20273393    -0.57700
O466        O  0.05240436  0.34614387  0.15030365    -0.56200
O467        O  0.02980277  0.31854001  0.21859948    -0.56200
O468        O  0.00403825  0.35223744  0.17173193    -0.55400
O469        O  0.85963625  0.68212432  0.94397191    -0.56600
C470        C  0.80452010  0.70093185  0.97776631     0.76100
O471        O  0.81291787  0.63473661  0.96741527    -0.57700
C472        C  0.87083768  0.66551371  0.94276980     0.76000
C473        C  0.85489686  0.66635535  0.01197486     0.78400
Cd474      Cd  0.83480645  0.66759154  0.97102708     1.37500
O475        O  0.82277595  0.70463117  0.96965036    -0.56600
O476        O  0.84674444  0.64975422  0.00417506    -0.55400
C477        C  0.80721030  0.63918175  0.94866440     0.78400
O478        O  0.85336330  0.68291298  0.00108003    -0.57700
O479        O  0.80030830  0.68195868  0.98227053    -0.56200
O480        O  0.86559764  0.65051247  0.95482506    -0.56200
O481        O  0.81430569  0.65618956  0.94096753    -0.55400
O482        O  0.68674250  0.53673601  0.80627267    -0.56600
C483        C  0.63909947  0.56408230  0.84168972     0.76100
O484        O  0.65959519  0.50107754  0.82823026    -0.57700
C485        C  0.70453337  0.52789614  0.81032224     0.76000
C486        C  0.70335306  0.55266738  0.87236370     0.78400
Cd487      Cd  0.67339129  0.53401156  0.84315282     1.37500
O488        O  0.64413747  0.55438071  0.85837120    -0.56600
O489        O  0.69621792  0.56188426  0.85614534    -0.55400
C490        C  0.64954276  0.49477860  0.84436148     0.78400
O491        O  0.69601187  0.53436080  0.87606597    -0.57700
O492        O  0.65014878  0.56013563  0.82532944    -0.56200
O493        O  0.70749556  0.52181537  0.82913404    -0.56200
O494        O  0.65149463  0.50588910  0.86088271    -0.55400
O495        O  0.67503482  0.85835411  0.04382822    -0.56600
C496        C  0.69206263  0.80206240  0.01252779     0.76100
O497        O  0.62530797  0.81167154  0.02408802    -0.57700
C498        C  0.65795744  0.86898073  0.04610334     0.76000
C499        C  0.65525892  0.85126832  0.97682097     0.78400
Cd500      Cd  0.65876250  0.83284655  0.01865748     1.37500
O501        O  0.69678051  0.82070797  0.01805287    -0.56600
O502        O  0.67297319  0.84869177  0.98614101    -0.55400
C503        C  0.62981545  0.80701063  0.04310321     0.78400
O504        O  0.63870152  0.84455103  0.98640473    -0.57700
O505        O  0.67233903  0.79789355  0.01020673    -0.56200
O506        O  0.64196450  0.86331074  0.03524899    -0.56200
O507        O  0.64734878  0.81413211  0.05027086    -0.55400
O508        O  0.54704184  0.69237572  0.20038834    -0.56600
C509        C  0.57377382  0.64271532  0.16436607     0.76100
O510        O  0.51406608  0.65195995  0.17917559    -0.57700
C511        C  0.52906386  0.70170923  0.20053686     0.76000
C512        C  0.55797314  0.70885117  0.13863859     0.78400
Cd513      Cd  0.54165146  0.67565485  0.16560191     1.37500
O514        O  0.56889369  0.65163510  0.18164633    -0.56600
O515        O  0.56707588  0.70272434  0.15535178    -0.55400
C516        C  0.50411320  0.64957810  0.16194107     0.78400
O517        O  0.54067648  0.69948159  0.13367602    -0.57700
O518        O  0.56436725  0.64940067  0.14801829    -0.56200
O519        O  0.51691703  0.69867107  0.18482439    -0.56200
O520        O  0.51141165  0.65943064  0.14601526    -0.55400
O521        O  0.45936537  0.80735846  0.30999138    -0.56600
C522        C  0.43630169  0.83820444  0.36243744     0.76100
O523        O  0.49642346  0.82635424  0.35090999    -0.57700
C524        C  0.47767170  0.80587863  0.30137371     0.76000
C525        C  0.44954010  0.86954314  0.30002186     0.78400
Cd526      Cd  0.46776269  0.84015868  0.32927711     1.37500
O527        O  0.44264881  0.82174202  0.35310499    -0.56600
O528        O  0.44450142  0.85030654  0.30075444    -0.55400
C529        C  0.50745982  0.84301401  0.35202596     0.78400
O530        O  0.46442347  0.87555963  0.31227398    -0.57700
O531        O  0.44450576  0.85538730  0.35648016    -0.56200
O532        O  0.49114729  0.82023229  0.30553369    -0.56200
O533        O  0.50007132  0.85913793  0.34274427    -0.55400
O534        O  0.28890354  0.96621335  0.19304139    -0.56600
C535        C  0.32898105  0.93909314  0.14640442     0.76100
O536        O  0.34376770  0.00111503  0.16256430    -0.57700
C537        C  0.29279641  0.97610941  0.21002463     0.76000
C538        C  0.35592512  0.94896462  0.20603503     0.78400
Cd539      Cd  0.32592067  0.96988755  0.17901589     1.37500
O540        O  0.31091180  0.94300196  0.15484924    -0.56600
O541        O  0.33983612  0.94014770  0.19765558    -0.55400
C542        C  0.32680409  0.00788640  0.15382324     0.78400
O543        O  0.35863462  0.96844430  0.20214979    -0.57700
O544        O  0.34491731  0.94959060  0.15285387    -0.56200
O545        O  0.31172351  0.98301124  0.21242941    -0.56200
O546        O  0.30978416  0.99765628  0.15739180    -0.55400
O547        O  0.36046562  0.17459735  0.44811163    -0.56600
C548        C  0.30653509  0.18771304  0.48097872     0.76100
O549        O  0.31590951  0.12161549  0.47272041    -0.57700
C550        C  0.36942058  0.15858939  0.44014816     0.76000
C551        C  0.35829372  0.14925050  0.51353086     0.78400
Cd552      Cd  0.33736615  0.15477743  0.47311247     1.37500
O553        O  0.32629539  0.19187726  0.47864680    -0.56600
O554        O  0.35552957  0.13360051  0.50143208    -0.55400
C555        C  0.30861098  0.12528615  0.45434792     0.78400
O556        O  0.35108958  0.16661872  0.50711169    -0.57700
O557        O  0.30109677  0.16861904  0.47922103    -0.56200
O558        O  0.36417935  0.14100316  0.44785219    -0.56200
O559        O  0.31460116  0.14214911  0.44551428    -0.55400
O560        O  0.14341355  0.04090769  0.34649599    -0.56600
C561        C  0.19621619  0.00787683  0.32706211     0.76100
O562        O  0.19301718  0.01786907  0.39394159    -0.57700
C563        C  0.13512997  0.04655605  0.36388328     0.76000
C564        C  0.14708035  0.97591661  0.36664692     0.78400
Cd565      Cd  0.16880217  0.01580678  0.36237976     1.37500
O566        O  0.17842156  0.01716639  0.32430921    -0.56600
O567        O  0.15194652  0.98391140  0.34904008    -0.55400
C568        C  0.20170150  0.03492267  0.38784682     0.78400
O569        O  0.15263460  0.98615001  0.38294894    -0.57700
O570        O  0.20078607  0.00228868  0.34570130    -0.56200
O571        O  0.14240259  0.03803632  0.38039385    -0.56200
O572        O  0.19496050  0.04260461  0.37066992    -0.55400
O573        O  0.82517654  0.44963071  0.65080562    -0.56600
C574        C  0.80742242  0.48978264  0.70046614     0.76100
O575        O  0.87314085  0.47362768  0.69765476    -0.57700
C576        C  0.84218732  0.44516637  0.64073488     0.76000
C577        C  0.84797943  0.51527933  0.64818457     0.78400
Cd578      Cd  0.84194942  0.47736482  0.67281247     1.37500
O579        O  0.80365661  0.47927172  0.68381115    -0.56600
O580        O  0.82989472  0.50701007  0.65185597    -0.55400
C581        C  0.86659510  0.45589739  0.70443628     0.78400
O582        O  0.86416941  0.50615489  0.65614828    -0.57700
O583        O  0.82683265  0.49457062  0.70401150    -0.56200
O584        O  0.85877774  0.45573181  0.64529381    -0.56200
O585        O  0.84938930  0.44885409  0.69657226    -0.55400
O586        O  0.94392297  0.32480456  0.85697519    -0.56600
C587        C  0.98256763  0.31188157  0.80440675     0.76100
O588        O  0.96786039  0.37797889  0.81404280    -0.57700
C589        C  0.94118199  0.33954919  0.87020069     0.76000
C590        C  0.01184598  0.35092052  0.85470518     0.78400
Cd591      Cd  0.97059429  0.34449251  0.83436862     1.37500
O592        O  0.97480806  0.30729405  0.82237553    -0.56600
O593        O  0.99959525  0.36644316  0.85133902    -0.55400
C594        C  0.94972721  0.37373138  0.80601148     0.78400
O595        O  0.00531797  0.33328972  0.84812292    -0.57700
O596        O  0.98388828  0.33126741  0.80004348    -0.56200
O597        O  0.95164496  0.35625037  0.86674077    -0.56200
O598        O  0.94129685  0.35638753  0.81136359    -0.55400
O599        O  0.04028037  0.19511169  0.70252382    -0.56600
C600        C  0.06796033  0.14428722  0.66870829     0.76100
O601        O  0.00832502  0.16284995  0.68169983    -0.57700
C602        C  0.03328322  0.21303629  0.69711308     0.76000
C603        C  0.06220458  0.20461299  0.63534345     0.78400
Cd604      Cd  0.03946478  0.18007483  0.66618623     1.37500
O605        O  0.06578885  0.15666163  0.68428372    -0.56600
O606        O  0.07031918  0.19794403  0.65236521    -0.55400
C607        C  0.99761633  0.16048501  0.66495035     0.78400
O608        O  0.04287242  0.19938456  0.63161976    -0.57700
O609        O  0.05693047  0.14838159  0.65247143    -0.56200
O610        O  0.02967103  0.21570695  0.67764899    -0.56200
O611        O  0.00590781  0.16774378  0.64813334    -0.55400
O612        O  0.21128894  0.31607045  0.53245268    -0.56600
C613        C  0.17436730  0.36531021  0.55739890     0.76100
O614        O  0.15643459  0.34255166  0.49467714    -0.57700
C615        C  0.20762773  0.29959120  0.52171019     0.76000
C616        C  0.14385042  0.30226060  0.54719994     0.78400
Cd617      Cd  0.17433438  0.33030604  0.52790814     1.37500
O618        O  0.19163151  0.35635961  0.55186537    -0.56600
O619        O  0.16205912  0.30640980  0.55504121    -0.55400
C620        C  0.17372396  0.34925084  0.48645797     0.78400
O621        O  0.13923303  0.31123572  0.52988541    -0.57700
O622        O  0.15729078  0.35826355  0.54925222    -0.56200
O623        O  0.18883043  0.29740890  0.51448429    -0.56200
O624        O  0.19055466  0.34714424  0.49729535    -0.55400
C625        C  0.10104370  0.26519894  0.57101493     0.17200
C626        C  0.08288464  0.25296410  0.57621250    -0.31800
C627        C  0.08389227  0.24056996  0.59465508     0.21600
C628        C  0.10218894  0.24047125  0.60713055     0.03800
C629        C  0.12006084  0.25268954  0.60205510    -0.21600
C630        C  0.11905431  0.26497206  0.58384638     0.13000
S631        S  0.10365295  0.28129809  0.54938107    -0.05200
C632        C  0.12914373  0.28764038  0.55805977    -0.08700
C633        C  0.13504339  0.27774261  0.57658818    -0.25300
S634        S  0.10080455  0.22480630  0.62875151    -0.02500
C635        C  0.07510759  0.21821175  0.62141305    -0.16000
C636        C  0.06808534  0.22769166  0.60285876    -0.13900
H637        H  0.06865363  0.25310404  0.56635741     0.21400
H638        H  0.13426795  0.25262739  0.61197308     0.17500
H639        H  0.15040205  0.27974448  0.58441284     0.20000
H640        H  0.05229485  0.22555820  0.59600152     0.13300
C641        C  0.01749155  0.26111277  0.73040926     0.17200
C642        C  0.01007376  0.28070199  0.73757164    -0.31800
C643        C  0.00363059  0.28227665  0.75878846     0.21600
C644        C  0.00463679  0.26515097  0.77230379     0.03800
C645        C  0.01256251  0.24570438  0.76526805    -0.21600
C646        C  0.01889786  0.24408789  0.74402877     0.13000
S647        S  0.02412177  0.25545066  0.70482994    -0.05200
C648        C  0.02882259  0.22985932  0.71253753    -0.08700
C649        C  0.02575514  0.22617793  0.73392502    -0.25300
S650        S  0.99532340  0.27010258  0.79725550    -0.02500
C651        C  0.99032398  0.29562857  0.78954412    -0.16000
C652        C  0.99557256  0.29984539  0.76862805    -0.13900
H653        H  0.00888623  0.29398672  0.72695221     0.21400
H654        H  0.01330198  0.23229377  0.77576465     0.17500
H655        H  0.02732812  0.21096696  0.74144357     0.20000
H656        H  0.99363852  0.31498280  0.76104174     0.13300
C657        C  0.88998146  0.41659326  0.74395275     0.17200
C658        C  0.89414673  0.39885412  0.75633830    -0.31800
C659        C  0.91292282  0.39883996  0.76843755     0.21600
C660        C  0.92700433  0.41576436  0.76830167     0.03800
C661        C  0.92280797  0.43361890  0.75586037    -0.21600
C662        C  0.90396694  0.43361056  0.74364226     0.13000
S663        S  0.86822427  0.41919189  0.72799563    -0.05200
C664        C  0.87800375  0.44341983  0.72046036    -0.08700
C665        C  0.89711650  0.44920168  0.73014416    -0.25300
S666        S  0.94894849  0.41242471  0.78421208    -0.02500
C667        C  0.93888712  0.38805540  0.79112202    -0.16000
C668        C  0.91964186  0.38295019  0.78142214    -0.13900
H669        H  0.88322571  0.38554852  0.75646297     0.21400
H670        H  0.93378650  0.44686283  0.75563256     0.17500
H671        H  0.90563882  0.46379377  0.72725332     0.20000
H672        H  0.91097112  0.36832830  0.78376102     0.13300
C673        C  0.25603671  0.26362867  0.51120966     0.17200
C674        C  0.27638650  0.25453703  0.50862065    -0.31800
C675        C  0.27745880  0.23471677  0.49883890     0.21600
C676        C  0.25907509  0.22432354  0.49215035     0.03800
C677        C  0.23881085  0.23347629  0.49455683    -0.21600
C678        C  0.23776538  0.25331210  0.50415158     0.13000
S679        S  0.25113289  0.28762364  0.52252823    -0.05200
C680        C  0.22425133  0.28374219  0.51735452    -0.08700
C681        C  0.21954932  0.26477469  0.50759104    -0.25300
S682        S  0.26357277  0.20007889  0.48146948    -0.02500
C683        C  0.29056442  0.20403487  0.48576447    -0.16000
C684        C  0.29566064  0.22319903  0.49499165    -0.13900
H685        H  0.29076004  0.26255651  0.51399515     0.21400
H686        H  0.22442144  0.22543652  0.48921362     0.17500
H687        H  0.20357835  0.25970768  0.50301962     0.20000
H688        H  0.31175729  0.22818015  0.49916099     0.13300
C689        C  0.24492257  0.05930479  0.42392948     0.17200
C690        C  0.25899686  0.06523732  0.44026837    -0.31800
C691        C  0.27118846  0.08369556  0.43738736     0.21600
C692        C  0.26955189  0.09542914  0.41898093     0.03800
C693        C  0.25572616  0.08945344  0.40273985    -0.21600
C694        C  0.24343810  0.07130369  0.40571235     0.13000
S695        S  0.22797219  0.03798869  0.42425143    -0.05200
C696        C  0.21881097  0.04570481  0.39972822    -0.08700
C697        C  0.22862365  0.06361536  0.39187430    -0.25300
S698        S  0.28494533  0.11747500  0.41835263    -0.02500
C699        C  0.29373230  0.11117516  0.44328403    -0.16000
C700        C  0.28523343  0.09270103  0.45152658    -0.13900
H701        H  0.26013088  0.05611229  0.45465173     0.21400
H702        H  0.25433050  0.09878271  0.38849830     0.17500
H703        H  0.22491341  0.07084990  0.37682774     0.20000
H704        H  0.28884157  0.08645176  0.46702046     0.13300
C705        C  0.24462535  0.98514102  0.24695784     0.17200
C706        C  0.22434310  0.98805494  0.25625395    -0.31800
C707        C  0.22370042  0.99476468  0.27741347     0.21600
C708        C  0.24243192  0.99801184  0.28881884     0.03800
C709        C  0.26258043  0.99538256  0.27948279    -0.21600
C710        C  0.26322066  0.98903521  0.25834310     0.13000
S711        S  0.24913586  0.97713383  0.22150888    -0.05200
C712        C  0.27627281  0.97964106  0.22626222    -0.08700
C713        C  0.28135631  0.98603606  0.24655302    -0.25300
S714        S  0.23859133  0.00499511  0.31448216    -0.02500
C715        C  0.21144592  0.00403578  0.30985441    -0.16000
C716        C  0.20570015  0.99853858  0.28941447    -0.13900
H717        H  0.20972962  0.98523629  0.24738968     0.21400
H718        H  0.27719848  0.99815106  0.28836874     0.17500
H719        H  0.29754127  0.98844781  0.25237538     0.20000
H720        H  0.18933425  0.99681066  0.28386948     0.13300
C721        C  0.38728143  0.90919850  0.23898126     0.17200
C722        C  0.39460240  0.89094298  0.24881041    -0.31800
C723        C  0.41191983  0.89284578  0.26264770     0.21600
C724        C  0.42158136  0.91207534  0.26679058     0.03800
C725        C  0.41416732  0.93050964  0.25691988    -0.21600
C726        C  0.39679709  0.92858238  0.24283264     0.13000
S727        S  0.36643413  0.90976244  0.22176775    -0.05200
C728        C  0.37029496  0.93648290  0.21951512    -0.08700
C729        C  0.38708993  0.94445275  0.23154744    -0.25300
S730        S  0.44238139  0.91063484  0.28445464    -0.02500
C731        C  0.43789267  0.88387794  0.28591676    -0.16000
C732        C  0.42115479  0.87673147  0.27349171    -0.13900
H733        H  0.38711621  0.87584463  0.24576512     0.21400
H734        H  0.42158221  0.94560386  0.26004910     0.17500
H735        H  0.39174019  0.96085622  0.23217639     0.20000
H736        H  0.41581583  0.86051732  0.27259751     0.13300
C737        C  0.48450619  0.76081776  0.26163668     0.17200
C738        C  0.48198111  0.74546641  0.24590409    -0.31800
C739        C  0.50062184  0.73606103  0.23778143     0.21600
C740        C  0.52082483  0.74131231  0.24535408     0.03800
C741        C  0.52334417  0.75674913  0.26092886    -0.21600
C742        C  0.50478855  0.76650787  0.26866323     0.13000
S743        S  0.46403620  0.77451504  0.27323093    -0.05200
C744        C  0.48311154  0.78845344  0.28711803    -0.08700
C745        C  0.50408602  0.78246874  0.28315017    -0.25300
S746        S  0.54145665  0.72813390  0.23355867    -0.02500
C747        C  0.52276906  0.71585203  0.21780731    -0.16000
C748        C  0.50166032  0.72154229  0.22179401    -0.13900
H749        H  0.46619135  0.74127153  0.24000988     0.21400
H750        H  0.53916008  0.76121893  0.26654673     0.17500
H751        H  0.51811438  0.78953167  0.29042385     0.20000
H752        H  0.48784764  0.71554819  0.21326926     0.13300
C753        C  0.58923148  0.77124946  0.07217620     0.17200
C754        C  0.57257220  0.75747724  0.07818661    -0.31800
C755        C  0.57402993  0.74775175  0.09811988     0.21600
C756        C  0.59109014  0.75200132  0.11153623     0.03800
C757        C  0.60743381  0.76596504  0.10571079    -0.21600
C758        C  0.60622076  0.77526392  0.08572303     0.13000
S759        S  0.59152537  0.78352724  0.04814731    -0.05200
C760        C  0.61572122  0.79385608  0.05647965    -0.08700
C761        C  0.62132502  0.78822978  0.07688979    -0.25300
S762        S  0.59087714  0.73802925  0.13444246    -0.02500
C763        C  0.56770066  0.72588896  0.12597523    -0.16000
C764        C  0.56035790  0.73278091  0.10643390    -0.13900
H765        H  0.55941457  0.75400039  0.06753953     0.21400
H766        H  0.62094056  0.76895394  0.11610634     0.17500
H767        H  0.63601939  0.79300188  0.08474266     0.20000
H768        H  0.54625011  0.72671084  0.09848312     0.13300
C769        C  0.75350026  0.51755611  0.77528626     0.17200
C770        C  0.77404308  0.51323673  0.76743261    -0.31800
C771        C  0.77582017  0.50728848  0.74618826     0.21600
C772        C  0.75793741  0.50562240  0.73326777     0.03800
C773        C  0.73738986  0.51047950  0.74100299    -0.21600
C774        C  0.73560812  0.51651993  0.76229130     0.13000
S775        S  0.74793379  0.52336317  0.80100994    -0.05200
C776        C  0.72122605  0.52469000  0.79423054    -0.08700
C777        C  0.71699119  0.52101336  0.77304629    -0.25300
S778        S  0.76353235  0.49702078  0.70822069    -0.02500
C779        C  0.79026210  0.49614367  0.71517592    -0.16000
C780        C  0.79438863  0.50208401  0.73584759    -0.13900
H781        H  0.78803929  0.51405926  0.77759187     0.21400
H782        H  0.72334350  0.50921711  0.73096859     0.17500
H783        H  0.70108428  0.52069219  0.76612705     0.20000
H784        H  0.81018139  0.50230708  0.74303957     0.13300
C785        C  0.77008651  0.74971332  0.98918322     0.17200
C786        C  0.76199484  0.77000855  0.99275378    -0.31800
C787        C  0.74054598  0.77177592  0.99939413     0.21600
C788        C  0.72771979  0.75411376  0.00215623     0.03800
C789        C  0.73586806  0.73386746  0.99884704    -0.21600
C790        C  0.75729425  0.73210873  0.99236143     0.13000
S791        S  0.79560760  0.74410113  0.98096041    -0.05200
C792        C  0.78898748  0.71778857  0.98213625    -0.08700
C793        C  0.76806569  0.71376765  0.98843453    -0.25300
S794        S  0.70189402  0.75946519  0.00922701    -0.02500
C795        C  0.70839784  0.78580196  0.00876228    -0.16000
C796        C  0.72957045  0.79008165  0.00342094    -0.13900
H797        H  0.77194560  0.78380939  0.99037017     0.21400
H798        H  0.72587699  0.72006475  0.00109619     0.17500
H799        H  0.76111869  0.69821130  0.99014125     0.20000
H800        H  0.73635811  0.80572040  0.00195099     0.13300
C801        C  0.76941811  0.61175512  0.90984683     0.17200
C802        C  0.75596796  0.60693984  0.89288227    -0.31800
C803        C  0.74374930  0.58851315  0.89418364     0.21600
C804        C  0.74505105  0.57511940  0.91140336     0.03800
C805        C  0.75868234  0.57991639  0.92846360    -0.21600
C806        C  0.77070059  0.59867429  0.92733673     0.13000
S807        S  0.78470561  0.63388156  0.91133544    -0.05200
C808        C  0.79283110  0.62582119  0.93600069    -0.08700
C809        C  0.78423400  0.60671063  0.94253074    -0.25300
S810        S  0.72852765  0.55354381  0.90963638    -0.02500
C811        C  0.71964541  0.56306275  0.88567146    -0.16000
C812        C  0.72927252  0.58173982  0.87949949    -0.13900
H813        H  0.75479749  0.61731780  0.87938189     0.21400
H814        H  0.75961592  0.56970594  0.94208972     0.17500
H815        H  0.78743496  0.59932452  0.95759064     0.20000
H816        H  0.72580366  0.59002880  0.86495913     0.13300
C817        C  0.15915995  0.40054500  0.40716369     0.17200
C818        C  0.14953362  0.38893942  0.42346613    -0.31800
C819        C  0.16305405  0.37789586  0.43721607     0.21600
C820        C  0.18517545  0.37815272  0.43460280     0.03800
C821        C  0.19477272  0.38947376  0.41810402    -0.21600
C822        C  0.18128366  0.40081580  0.40460230     0.13000
S823        S  0.14562988  0.41596886  0.38966198    -0.05200
C824        C  0.17002896  0.42301290  0.37889563    -0.08700
C825        C  0.18763326  0.41368540  0.38836051    -0.25300
S826        S  0.19892718  0.36506813  0.45373859    -0.02500
C827        C  0.17467866  0.35942124  0.46561456    -0.16000
C828        C  0.15689119  0.36692476  0.45490600    -0.13900
H829        H  0.13225592  0.38901850  0.42570899     0.21400
H830        H  0.21210320  0.38995509  0.41627321     0.17500
H831        H  0.20420697  0.41643928  0.38382399     0.20000
H832        H  0.14044119  0.36532175  0.46031040     0.13300
C833        C  0.10348355  0.39645407  0.23170268     0.17200
C834        C  0.12251759  0.40400165  0.24054462    -0.31800
C835        C  0.12104789  0.42083049  0.25468161     0.21600
C836        C  0.10154729  0.43012577  0.25959162     0.03800
C837        C  0.08241682  0.42272026  0.25047377    -0.21600
C838        C  0.08384082  0.40552586  0.23655940     0.13000
S839        S  0.10203872  0.37515514  0.21552059    -0.05200
C840        C  0.07460401  0.37811752  0.21541417    -0.08700
C841        C  0.06708242  0.39508943  0.22706424    -0.25300
S842        S  0.10332723  0.44963238  0.27819016    -0.02500
C843        C  0.13051294  0.44480769  0.27948311    -0.16000
C844        C  0.13765542  0.42922248  0.26592652    -0.13900
H845        H  0.13780437  0.39660394  0.23706273     0.21400
H846        H  0.06705790  0.42961301  0.25455257     0.17500
H847        H  0.05030963  0.39912936  0.22902084     0.20000
H848        H  0.15409330  0.42369310  0.26495931     0.13300
C849        C  0.08989234  0.08597983  0.37439226     0.17200
C850        C  0.07414428  0.09918594  0.38310245    -0.31800
C851        C  0.05970294  0.10877294  0.36911081     0.21600
C852        C  0.06109972  0.10541006  0.34748051     0.03800
C853        C  0.07683637  0.09239256  0.33882591    -0.21600
C854        C  0.09111445  0.08276629  0.35273998     0.13000
S855        S  0.10845395  0.07218600  0.38852063    -0.05200
C856        C  0.11777184  0.06206134  0.36494736    -0.08700
C857        C  0.10712604  0.06917612  0.34721954    -0.25300
S858        S  0.04217101  0.11792189  0.33299832    -0.02500
C859        C  0.03202395  0.12787027  0.35622332    -0.16000
C860        C  0.04289433  0.12177199  0.37430102    -0.13900
H861        H  0.07303699  0.10165758  0.40001439     0.21400
H862        H  0.07775669  0.08969325  0.32193517     0.17500
H863        H  0.11063132  0.06432887  0.33116290     0.20000
H864        H  0.03863995  0.12640307  0.39024352     0.13300
C865        C  0.02360259  0.26444777  0.26350514     0.17200
C866        C  0.01944586  0.25680707  0.28385984    -0.31800
C867        C  0.01214233  0.23602844  0.28578176     0.21600
C868        C  0.00919960  0.22327925  0.26822821     0.03800
C869        C  0.01399096  0.23073559  0.24785948    -0.21600
C870        C  0.02118262  0.25163395  0.24591366     0.13000
S871        S  0.03045664  0.28983605  0.25782736    -0.05200
C872        C  0.03021187  0.28322851  0.23142795    -0.08700
C873        C  0.02533586  0.26226945  0.22742693    -0.25300
S874        S  0.99859781  0.19905339  0.27393944    -0.02500
C875        C  0.99834016  0.20621848  0.30022493    -0.16000
C876        C  0.00624202  0.22622227  0.30416581    -0.13900
H877        H  0.02116435  0.26688198  0.29761187     0.21400
H878        H  0.01156656  0.22088328  0.23405245     0.17500
H879        H  0.02383034  0.25546170  0.21178249     0.20000
H880        H  0.00701962  0.23346947  0.31966756     0.13300
C881        C  0.86346058  0.38504872  0.56916999     0.17200
C882        C  0.87133185  0.39980693  0.58371666    -0.31800
C883        C  0.85679324  0.40822899  0.59841247     0.21600
C884        C  0.83545260  0.40196805  0.59886343     0.03800
C885        C  0.82764598  0.38708580  0.58446238    -0.21600
C886        C  0.84206814  0.37896004  0.56954175     0.13000
S887        S  0.87804951  0.37416688  0.54905502    -0.05200
C888        C  0.85496654  0.36165483  0.54084328    -0.08700
C889        C  0.83713330  0.36548951  0.55337814    -0.25300
S890        S  0.82019137  0.41454077  0.61739350    -0.02500
C891        C  0.84269608  0.42863355  0.62444187    -0.16000
C892        C  0.86106006  0.42350608  0.61312471    -0.13900
H893        H  0.88795927  0.40494318  0.58322960     0.21400
H894        H  0.81085760  0.38245134  0.58451399     0.17500
H895        H  0.82114325  0.35942710  0.55029759     0.20000
H896        H  0.87663560  0.43086147  0.61528260     0.13300
C897        C  0.92015987  0.26243046  0.43925788     0.17200
C898        C  0.93645076  0.24744169  0.43576247    -0.31800
C899        C  0.93643966  0.23666309  0.41626560     0.21600
C900        C  0.92101424  0.24091563  0.40107430     0.03800
C901        C  0.90503797  0.25584499  0.40449168    -0.21600
C902        C  0.90492235  0.26635460  0.42382641     0.13000
S903        S  0.91639551  0.27686666  0.46190916    -0.05200
C904        C  0.89410036  0.28799336  0.45020033    -0.08700
C905        C  0.89011880  0.28090408  0.42994100    -0.25300
S906        S  0.92295100  0.22636044  0.37870390    -0.02500
C907        C  0.94478842  0.21399630  0.38959068    -0.16000
C908        C  0.95034626  0.22107833  0.40968703    -0.13900
H909        H  0.94837466  0.24413268  0.44777260     0.21400
H910        H  0.89292581  0.25895553  0.39258360     0.17500
H911        H  0.87676128  0.28592294  0.42019129     0.20000
H912        H  0.96359381  0.21506856  0.41896088     0.13300
C913        C  0.45576436  0.61381399  0.15086022     0.17200
C914        C  0.43954435  0.60152597  0.14177995    -0.31800
C915        C  0.42558265  0.59080048  0.15543062     0.21600
C916        C  0.42759389  0.59220132  0.17720425     0.03800
C917        C  0.44394331  0.60439907  0.18632542    -0.21600
C918        C  0.45795645  0.61511383  0.17262427     0.13000
S919        S  0.47416385  0.62816491  0.13692309    -0.05200
C920        C  0.48510707  0.63587268  0.16063813    -0.08700
C921        C  0.47486746  0.62770840  0.17833784    -0.25300
S922        S  0.40867466  0.57821516  0.19092222    -0.02500
C923        C  0.39801098  0.57045769  0.16701602    -0.16000
C924        C  0.40872304  0.57829251  0.14951000    -0.13900
H925        H  0.43782288  0.60043697  0.12480069     0.21400
H926        H  0.44562623  0.60554189  0.20330934     0.17500
H927        H  0.47954297  0.63084683  0.19451063     0.20000
H928        H  0.40427585  0.57516441  0.13327828     0.13300
C929        C  0.27885046  0.51296057  0.24546386     0.17200
C930        C  0.26614472  0.51571891  0.26350508    -0.31800
C931        C  0.25325584  0.49878997  0.26991833     0.21600
C932        C  0.25349952  0.47968880  0.25929059     0.03800
C933        C  0.26621140  0.47692639  0.24123895    -0.21600
C934        C  0.27858642  0.49408528  0.23444176     0.13000
S935        S  0.29483024  0.53192011  0.23455093    -0.05200
C936        C  0.30069894  0.51441448  0.21461968    -0.08700
C937        C  0.29101313  0.49488320  0.21662689    -0.25300
S938        S  0.23634115  0.46125099  0.26936402    -0.02500
C939        C  0.22825857  0.47975349  0.28756615    -0.16000
C940        C  0.23866771  0.49895170  0.28608799    -0.13900
H941        H  0.26587501  0.53062418  0.27186364     0.21400
H942        H  0.26602831  0.46221527  0.23253687     0.17500
H943        H  0.29285327  0.48200030  0.20553473     0.20000
H944        H  0.23534244  0.51247350  0.29601493     0.13300
C945        C  0.26670950  0.58810526  0.11294769     0.17200
C946        C  0.25103448  0.60348205  0.10978103    -0.31800
C947        C  0.24200375  0.60508679  0.08962456     0.21600
C948        C  0.24812692  0.59192016  0.07323299     0.03800
C949        C  0.26386646  0.57638995  0.07642870    -0.21600
C950        C  0.27303079  0.57482948  0.09669430     0.13000
S951        S  0.27968692  0.58415259  0.13624487    -0.05200
C952        C  0.29398131  0.56435270  0.12416597    -0.08700
C953        C  0.28873825  0.56101560  0.10308762    -0.25300
S954        S  0.23502493  0.59677373  0.04991101    -0.02500
C955        C  0.22133928  0.61675312  0.06253018    -0.16000
C956        C  0.22676260  0.61929295  0.08360147    -0.13900
H957        H  0.24617727  0.61386318  0.12247345     0.21400
H958        H  0.26881048  0.56610005  0.06371273     0.17500
H959        H  0.29609843  0.54930475  0.09301559     0.20000
H960        H  0.21991039  0.63101576  0.09403136     0.13300
C961        C  0.34500124  0.90139071  0.10220741     0.17200
C962        C  0.35614753  0.89018625  0.08661291    -0.31800
C963        C  0.34425565  0.88221251  0.06962903     0.21600
C964        C  0.32219209  0.88497656  0.06847921     0.03800
C965        C  0.31097736  0.89561839  0.08437342    -0.21600
C966        C  0.32289934  0.90390179  0.10114066     0.13000
S967        S  0.35681164  0.91437710  0.12266140    -0.05200
C968        C  0.33174057  0.92340884  0.12968552    -0.08700
C969        C  0.31512515  0.91626371  0.11712242    -0.25300
S970        S  0.31077439  0.87532053  0.04610405    -0.02500
C971        C  0.33595138  0.86741436  0.03815380    -0.16000
C972        C  0.35226689  0.87190720  0.05228615    -0.13900
H973        H  0.37346058  0.88845550  0.08727980     0.21400
H974        H  0.29376604  0.89801400  0.08331028     0.17500
H975        H  0.29845390  0.92084703  0.11886279     0.20000
H976        H  0.36906200  0.86815891  0.04984591     0.13300
C977        C  0.23743722  0.73754680  0.00070340     0.17200
C978        C  0.24771984  0.75239304  0.98783053    -0.31800
C979        C  0.26338787  0.76521799  0.99714833     0.21600
C980        C  0.26871680  0.76330657  0.01833147     0.03800
C981        C  0.25799382  0.74885078  0.03136872    -0.21600
C982        C  0.24219223  0.73610287  0.02206014     0.13000
S983        S  0.21886753  0.71973063  0.99209035    -0.05200
C984        C  0.21692991  0.71071816  0.01766834    -0.08700
C985        C  0.23021183  0.72088083  0.03196385    -0.25300
S986        S  0.28948369  0.77909472  0.02610477    -0.02500
C987        C  0.29077187  0.78846745  0.00057434    -0.16000
C988        C  0.27573790  0.77990825  0.98697503    -0.13900
H989        H  0.24398922  0.75359951  0.97117747     0.21400
H990        H  0.26206574  0.74732318  0.04791736     0.17500
H991        H  0.23135504  0.71701486  0.04858052     0.20000
H992        H  0.27451096  0.78360159  0.97032459     0.13300
C993        C  0.56235961  0.61921321  0.86131656     0.17200
C994        C  0.57817228  0.60573541  0.86925352    -0.31800
C995        C  0.59322689  0.59763052  0.85491187     0.21600
C996        C  0.59272126  0.60279413  0.83363185     0.03800
C997        C  0.57692315  0.61627948  0.82570026    -0.21600
C998        C  0.56177163  0.62425896  0.84001169     0.13000
S999        S  0.54216689  0.63014925  0.87595922    -0.05200
C1000       C  0.53272769  0.64145020  0.85308083    -0.08700
C1001       C  0.54480703  0.63701070  0.83520658    -0.25300
S1002       S  0.61228088  0.59107505  0.81879278    -0.02500
C1003       C  0.62112079  0.57899488  0.84149021    -0.16000
C1004       C  0.60948998  0.58395963  0.85950398    -0.13900
H1005       H  0.57857652  0.60154610  0.88584412     0.21400
H1006       H  0.57631111  0.62019349  0.80904705     0.17500
H1007       H  0.54108186  0.64245404  0.81941098     0.20000
H1008       H  0.61265618  0.57773496  0.87512497     0.13300
C1009       C  0.41265013  0.76457557  0.93947610     0.17200
C1010       C  0.43128183  0.75414036  0.93250807    -0.31800
C1011       C  0.42885925  0.73838195  0.91701989     0.21600
C1012       C  0.40877030  0.73322071  0.90909695     0.03800
C1013       C  0.39028434  0.74341539  0.91618251    -0.21600
C1014       C  0.39272368  0.75920854  0.93135407     0.13000
S1015       S  0.41182775  0.78482153  0.95742373    -0.05200
C1016       C  0.38442339  0.78596296  0.95361711    -0.08700
C1017       C  0.37659833  0.77133151  0.93936242    -0.25300
S1018       S  0.40889810  0.71457024  0.88984593    -0.02500
C1019       C  0.43638246  0.71354784  0.89217867    -0.16000
C1020       C  0.44490437  0.72693363  0.90740814    -0.13900
H1021       H  0.44695685  0.75837986  0.93856521     0.21400
H1022       H  0.37464959  0.73950021  0.90978051     0.17500
H1023       H  0.35990052  0.76983453  0.93479995     0.20000
H1024       H  0.46185373  0.72861735  0.91080282     0.13300
C1025       C  0.75669328  0.22780431  0.49907742     0.17200
C1026       C  0.77695039  0.23510351  0.49271314    -0.31800
C1027       C  0.77991336  0.25694392  0.49116573     0.21600
C1028       C  0.76337235  0.27091209  0.49537513     0.03800
C1029       C  0.74317797  0.26361134  0.50185730    -0.21600
C1030       C  0.74032017  0.24180855  0.50378772     0.13000
S1031       S  0.74976547  0.20193471  0.50201805    -0.05200
C1032       C  0.72468323  0.21014878  0.51007060    -0.08700
C1033       C  0.72199024  0.23176640  0.51028786    -0.25300
S1034       S  0.77026339  0.29682208  0.49270899    -0.02500
C1035       C  0.79585612  0.28876217  0.48640579    -0.16000
C1036       C  0.79861905  0.26711832  0.48608281    -0.13900
H1037       H  0.78991354  0.22424060  0.48932448     0.21400
H1038       H  0.73029654  0.27448021  0.50548083     0.17500
H1039       H  0.70729832  0.23971444  0.51476965     0.20000
H1040       H  0.81365773  0.25924894  0.48267309     0.13300
C1041       C  0.91902095  0.10621727  0.64883652     0.17200
C1042       C  0.93557255  0.11821530  0.63974327    -0.31800
C1043       C  0.94902747  0.12959266  0.65338174     0.21600
C1044       C  0.94604651  0.12906162  0.67510118     0.03800
C1045       C  0.92934108  0.11729722  0.68416160    -0.21600
C1046       C  0.91595104  0.10586445  0.67054377     0.13000
S1047       S  0.90150544  0.09073286  0.63509277    -0.05200
C1048       C  0.88980893  0.08378412  0.65881195    -0.08700
C1049       C  0.89914770  0.09307762  0.67637404    -0.25300
S1050       S  0.96479264  0.14278468  0.68907003    -0.02500
C1051       C  0.97689351  0.14930742  0.66545220    -0.16000
C1052       C  0.96662334  0.14141300  0.64770310    -0.13900
H1053       H  0.93808342  0.11837265  0.62280134     0.21400
H1054       H  0.92713057  0.11676443  0.70113585     0.17500
H1055       H  0.89408188  0.09043575  0.69253819     0.20000
H1056       H  0.97223637  0.14345153  0.63162470     0.13300
C1057       C  0.74184079  0.11573089  0.58994996     0.17200
C1058       C  0.75616895  0.11247727  0.60658204    -0.31800
C1059       C  0.76726095  0.09339552  0.60707309     0.21600
C1060       C  0.76421730  0.07805523  0.59177756     0.03800
C1061       C  0.74974562  0.08130006  0.57506629    -0.21600
C1062       C  0.73867406  0.10055997  0.57448577     0.13000
S1063       S  0.72734076  0.13808446  0.58659602    -0.05200
C1064       C  0.71681711  0.12714208  0.56396316    -0.08700
C1065       C  0.72421733  0.10704788  0.55940917    -0.25300
S1066       S  0.77955178  0.05601258  0.59541428    -0.02500
C1067       C  0.79014238  0.06781614  0.61763596    -0.16000
C1068       C  0.78202073  0.08762252  0.62189500    -0.13900
H1069       H  0.75868726  0.12439964  0.61856235     0.21400
H1070       H  0.74734920  0.06944659  0.56301348     0.17500
H1071       H  0.71947667  0.09784667  0.54579384     0.20000
H1072       H  0.78670689  0.09735280  0.63517588     0.13300
C1073       C  0.50417354  0.75495435  0.73911445     0.17200
C1074       C  0.50046418  0.73466127  0.74708919    -0.31800
C1075       C  0.49203963  0.73297819  0.76761978     0.21600
C1076       C  0.48755731  0.75072935  0.77960975     0.03800
C1077       C  0.49077114  0.77092527  0.77146868    -0.21600
C1078       C  0.49920997  0.77259912  0.75105389     0.13000
S1079       S  0.51515790  0.76055698  0.71497955    -0.05200
C1080       C  0.51285765  0.78688734  0.72112690    -0.08700
C1081       C  0.50398652  0.79091638  0.74076577    -0.25300
S1082       S  0.47905033  0.74561684  0.80465543    -0.02500
C1083       C  0.48118364  0.71925034  0.79894372    -0.16000
C1084       C  0.48807502  0.71474430  0.77859517    -0.13900
H1085       H  0.50435482  0.72078639  0.73784820     0.21400
H1086       H  0.48728053  0.78480627  0.78086753     0.17500
H1087       H  0.50128895  0.80649378  0.74726146     0.20000
H1088       H  0.49085579  0.69903578  0.77248795     0.13300
C1089       C  0.67345733  0.90305403  0.89814775     0.17200
C1090       C  0.68177754  0.88951131  0.91359369    -0.31800
C1091       C  0.66727192  0.88016576  0.92781109     0.21600
C1092       C  0.64535766  0.88364306  0.92638085     0.03800
C1093       C  0.63701297  0.89699909  0.91078252    -0.21600
C1094       C  0.65157821  0.90681210  0.89694242     0.13000
S1095       S  0.68850722  0.91717916  0.88043984    -0.05200
C1096       C  0.66514263  0.92871374  0.87168393    -0.08700
C1097       C  0.64673094  0.92146716  0.88177317    -0.25300
S1098       S  0.63057333  0.87164097  0.94579621    -0.02500
C1099       C  0.65420350  0.86224754  0.95627057    -0.16000
C1100       C  0.67241576  0.86789731  0.94489580    -0.13900
H1101       H  0.69894518  0.88692035  0.91493199     0.21400
H1102       H  0.61992055  0.90018398  0.90992656     0.17500
H1103       H  0.63062400  0.92704743  0.87853655     0.20000
H1104       H  0.68870719  0.86385559  0.94934531     0.13300
C1105       C  0.72557760  0.01289088  0.74538221     0.17200
C1106       C  0.73389685  0.01736670  0.72525393    -0.31800
C1107       C  0.75582128  0.02237812  0.72375992     0.21600
C1108       C  0.76872775  0.02355991  0.74155711     0.03800
C1109       C  0.76039205  0.01915504  0.76164757    -0.21600
C1110       C  0.73868464  0.01343949  0.76307208     0.13000
S1111       S  0.69971968  0.00535473  0.75052858    -0.05200
C1112       C  0.70696372  0.00202342  0.77659476    -0.08700
C1113       C  0.72811262  0.00711421  0.78099785    -0.25300
S1114       S  0.79497383  0.02958914  0.73643251    -0.02500
C1115       C  0.78867069  0.02998924  0.70997480    -0.16000
C1116       C  0.76722213  0.02596319  0.70555562    -0.13900
H1117       H  0.72386004  0.01643050  0.71130735     0.21400
H1118       H  0.77055861  0.01956539  0.77552048     0.17500
H1119       H  0.73542809  0.00599989  0.79647482     0.20000
H1120       H  0.76040142  0.02540365  0.68982111     0.13300
C1121       C  0.59128521  0.93114836  0.76097706     0.17200
C1122       C  0.57261561  0.92421680  0.75070222    -0.31800
C1123       C  0.57445092  0.90694623  0.73696851     0.21600
C1124       C  0.59403546  0.89714400  0.73355039     0.03800
C1125       C  0.61267802  0.90419696  0.74360206    -0.21600
C1126       C  0.61079600  0.92128635  0.75741470     0.13000
S1127       S  0.59248950  0.95137530  0.77879459    -0.05200
C1128       C  0.61952329  0.94636019  0.78138404    -0.08700
C1129       C  0.62700804  0.92992949  0.76905301    -0.25300
S1130       S  0.59291339  0.87592456  0.71717127    -0.02500
C1131       C  0.56571453  0.88012530  0.71490395    -0.16000
C1132       C  0.55808637  0.89732447  0.72609296    -0.13900
H1133       H  0.55728041  0.93173414  0.75354356     0.21400
H1134       H  0.62796115  0.89644208  0.74105074     0.17500
H1135       H  0.64348212  0.92445037  0.76875172     0.20000
H1136       H  0.54143024  0.90215432  0.72669255     0.13300
C1137       C  0.88519431  0.67613244  0.06374046     0.17200
C1138       C  0.89630295  0.68493286  0.08086513    -0.31800
C1139       C  0.90720549  0.67117236  0.09439447     0.21600
C1140       C  0.90700038  0.64960075  0.09100923     0.03800
C1141       C  0.89545776  0.64077070  0.07419385    -0.21600
C1142       C  0.88460823  0.65452696  0.06062952     0.13000
S1143       S  0.87236041  0.69024891  0.04469773    -0.05200
C1144       C  0.86594507  0.66681158  0.03249321    -0.08700
C1145       C  0.87334035  0.64904655  0.04282287    -0.25300
S1146       S  0.92233807  0.63566031  0.10829790    -0.02500
C1147       C  0.92891495  0.65908108  0.12039937    -0.16000
C1148       C  0.91957032  0.67671150  0.11146090    -0.13900
H1149       H  0.89685089  0.70182184  0.08324218     0.21400
H1150       H  0.89537042  0.62392035  0.07150201     0.17500
H1151       H  0.87126805  0.63306071  0.03719904     0.20000
H1152       H  0.92212670  0.69271953  0.11681916     0.13300
C1153       C  0.09273100  0.64470684  0.10190349     0.17200
C1154       C  0.07588233  0.63524435  0.11315579    -0.31800
C1155       C  0.06312500  0.64821616  0.12593694     0.21600
C1156       C  0.06710128  0.66963844  0.12758796     0.03800
C1157       C  0.08411663  0.67905416  0.11653937    -0.21600
C1158       C  0.09674815  0.66611831  0.10359304     0.13000
S1159       S  0.10937871  0.63184575  0.08484371    -0.05200
C1160       C  0.12192208  0.65554518  0.07989064    -0.08700
C1161       C  0.11355121  0.67243879  0.09102641    -0.25300
S1162       S  0.04899024  0.68290019  0.14279068    -0.02500
C1163       C  0.03577233  0.65939015  0.14681093    -0.16000
C1164       C  0.04524805  0.64219401  0.13711007    -0.13900
H1165       H  0.07256278  0.61855991  0.11163960     0.21400
H1166       H  0.08706877  0.69583470  0.11760484     0.17500
H1167       H  0.11925552  0.68850825  0.08977939     0.20000
H1168       H  0.03884012  0.62632878  0.13739726     0.13300
C1169       C  0.83586875  0.44160972  0.39150776     0.17200
C1170       C  0.82646133  0.42547793  0.40347343    -0.31800
C1171       C  0.84017201  0.41155607  0.41401697     0.21600
C1172       C  0.86230947  0.41359005  0.41266944     0.03800
C1173       C  0.87172998  0.42952817  0.40039809    -0.21600
C1174       C  0.85800222  0.44351830  0.38989506     0.13000
S1175       S  0.82194292  0.46077298  0.37868387    -0.05200
C1176       C  0.84614463  0.47160239  0.37104912    -0.08700
C1177       C  0.86402236  0.46062181  0.37794917    -0.25300
S1178       S  0.87614178  0.39571537  0.42743168    -0.02500
C1179       C  0.85185845  0.38526106  0.43532928    -0.16000
C1180       C  0.83407214  0.39520056  0.42686248    -0.13900
H1181       H  0.80914362  0.42408086  0.40483291     0.21400
H1182       H  0.88904069  0.43120079  0.39941501     0.17500
H1183       H  0.88050292  0.46530783  0.37501978     0.20000
H1184       H  0.81755126  0.39093342  0.43024273     0.13300
C1185       C  0.89464481  0.57449587  0.25436063     0.17200
C1186       C  0.89689444  0.58751398  0.23673036    -0.31800
C1187       C  0.91762912  0.59124498  0.22917217     0.21600
C1188       C  0.93547480  0.58205698  0.23837568     0.03800
C1189       C  0.93316042  0.56844381  0.25580633    -0.21600
C1190       C  0.91228110  0.56506816  0.26375338     0.13000
S1191       S  0.87093552  0.57013035  0.26688558    -0.05200
C1192       C  0.88459858  0.55540118  0.28526408    -0.08700
C1193       C  0.90655258  0.55377672  0.28153905    -0.25300
S1194       S  0.95937940  0.59054914  0.22787204    -0.02500
C1195       C  0.94496734  0.60692124  0.21141893    -0.16000
C1196       C  0.92293209  0.60520374  0.21361281    -0.13900
H1197       H  0.88311394  0.59520572  0.22978545     0.21400
H1198       H  0.94703518  0.56157382  0.26337911     0.17500
H1199       H  0.91772112  0.54554690  0.29165455     0.20000
H1200       H  0.91135325  0.61466747  0.20513860     0.13300
C1201       C  0.11242303  0.92664428  0.37531256     0.17200
C1202       C  0.09792898  0.91132138  0.38253328    -0.31800
C1203       C  0.09206788  0.89523801  0.36842575     0.21600
C1204       C  0.10050975  0.89424038  0.34816177     0.03800
C1205       C  0.11506765  0.90947135  0.34099813    -0.21600
C1206       C  0.12061126  0.92573488  0.35494694     0.13000
S1207       S  0.12088154  0.94800286  0.38956511    -0.05200
C1208       C  0.13528480  0.95588490  0.36770296    -0.08700
C1209       C  0.13364166  0.94250216  0.35047853    -0.25300
S1210       S  0.09066403  0.87408648  0.33313248    -0.02500
C1211       C  0.07465012  0.86713327  0.35420108    -0.16000
C1212       C  0.07728865  0.87962419  0.37202189    -0.13900
H1213       H  0.09113977  0.91216559  0.39827770     0.21400
H1214       H  0.12139230  0.90896377  0.32505154     0.17500
H1215       H  0.14134351  0.94508883  0.33533698     0.20000
H1216       H  0.06830939  0.87783119  0.38658408     0.13300
C1217       C  0.97831288  0.72373184  0.25741530     0.17200
C1218       C  0.98148618  0.73050187  0.27826747    -0.31800
C1219       C  0.99040155  0.75055100  0.28134794     0.21600
C1220       C  0.99571627  0.76340513  0.26442672     0.03800
C1221       C  0.99209981  0.75680549  0.24355529    -0.21600
C1222       C  0.98340032  0.73663390  0.24045553     0.13000
S1223       S  0.96971659  0.69919492  0.25044334    -0.05200
C1224       C  0.97315987  0.70623128  0.22437413    -0.08700
C1225       C  0.98018080  0.72675684  0.22138728    -0.25300
S1226       S  0.00732712  0.78676320  0.27151566    -0.02500
C1227       C  0.00487075  0.77919118  0.29754372    -0.16000
C1228       C  0.99547083  0.75958450  0.30039867    -0.13900
H1229       H  0.97776404  0.72033488  0.29149871     0.21400
H1230       H  0.99645202  0.76671224  0.23031331     0.17500
H1231       H  0.98390590  0.73365295  0.20617578     0.20000
H1232       H  0.99276829  0.75221100  0.31559448     0.13300
C1233       C  0.18239438  0.58292480  0.40803836     0.17200
C1234       C  0.19161163  0.56779554  0.39478409    -0.31800
C1235       C  0.17778385  0.55370662  0.38452113     0.21600
C1236       C  0.15570477  0.55460422  0.38721468     0.03800
C1237       C  0.14648762  0.56955699  0.40074017    -0.21600
C1238       C  0.16034845  0.58362691  0.41107160     0.13000
S1239       S  0.19639549  0.60187661  0.42134164    -0.05200
C1240       C  0.17231114  0.61076187  0.43123020    -0.08700
C1241       C  0.15449266  0.59946757  0.42455597    -0.25300
S1242       S  0.14177645  0.53609230  0.37313512    -0.02500
C1243       C  0.16602919  0.52684498  0.36391869    -0.16000
C1244       C  0.18377526  0.53778552  0.37124994    -0.13900
H1245       H  0.20887162  0.56709241  0.39247557     0.21400
H1246       H  0.12923162  0.57025878  0.40305103     0.17500
H1247       H  0.13805897  0.60292255  0.42904068     0.20000
H1248       H  0.20029331  0.53406093  0.36730339     0.13300
C1249       C  0.10240295  0.72203936  0.41226062     0.17200
C1250       C  0.09533620  0.73318154  0.39462607    -0.31800
C1251       C  0.07822339  0.74706449  0.39740070     0.21600
C1252       C  0.06826192  0.74969747  0.41682361     0.03800
C1253       C  0.07525888  0.73833380  0.43458151    -0.21600
C1254       C  0.09266317  0.72450599  0.43183642     0.13000
S1255       S  0.12369652  0.70540232  0.41198686    -0.05200
C1256       C  0.11976464  0.70163992  0.43860541    -0.08700
C1257       C  0.10257162  0.71265199  0.44714608    -0.25300
S1258       S  0.04811400  0.76804208  0.41664978    -0.02500
C1259       C  0.05352502  0.77215942  0.39022672    -0.16000
C1260       C  0.06985673  0.75979275  0.38218483    -0.13900
H1261       H  0.10316511  0.73141584  0.37941140     0.21400
H1262       H  0.06776387  0.74046591  0.44989069     0.17500
H1263       H  0.09799621  0.71245840  0.46366220     0.20000
H1264       H  0.07563978  0.76036357  0.36602447     0.13300
C1265       C  0.10653282  0.09781045  0.67712713     0.17200
C1266       C  0.12020502  0.08219748  0.68504352    -0.31800
C1267       C  0.12726448  0.06655101  0.67098751     0.21600
C1268       C  0.12121468  0.06651353  0.64991578     0.03800
C1269       C  0.10760011  0.08215979  0.64199465    -0.21600
C1270       C  0.10034519  0.09766482  0.65609258     0.13000
S1271       S  0.09571552  0.11791109  0.69166203    -0.05200
C1272       C  0.08253264  0.12603740  0.66918605    -0.08700
C1273       C  0.08658145  0.11378995  0.65147973    -0.25300
S1274       S  0.13113036  0.04581973  0.63558932    -0.02500
C1275       C  0.14342304  0.03702825  0.65828108    -0.16000
C1276       C  0.13997229  0.04968015  0.67585323    -0.13900
H1277       H  0.12492381  0.08208141  0.70154539     0.21400
H1278       H  0.10261067  0.08208911  0.62557011     0.17500
H1279       H  0.07969224  0.11649215  0.63599078     0.20000
H1280       H  0.14612146  0.04645656  0.69154302     0.13300
C1281       C  0.41215286  0.85241346  0.59765550     0.17200
C1282       C  0.42951747  0.86156646  0.60832342    -0.31800
C1283       C  0.44048489  0.84915930  0.62304289     0.21600
C1284       C  0.43443435  0.82849992  0.62694333     0.03800
C1285       C  0.41687042  0.81941412  0.61646852    -0.21600
C1286       C  0.40590860  0.83184078  0.60170424     0.13000
S1287       S  0.39734522  0.86471724  0.57874249    -0.05200
C1288       C  0.38248328  0.84197027  0.57619467    -0.08700
C1289       C  0.38877228  0.82575578  0.58947119    -0.25300
S1290       S  0.45073213  0.81560996  0.64423076    -0.02500
C1291       C  0.46577156  0.83832219  0.64630782    -0.16000
C1292       C  0.45833349  0.85498152  0.63432236    -0.13900
H1293       H  0.43449134  0.87759240  0.60502429     0.21400
H1294       H  0.41221694  0.80322703  0.61940048     0.17500
H1295       H  0.38136927  0.81031612  0.58998362     0.20000
H1296       H  0.46617709  0.87017367  0.63310989     0.13300
C1297       C  0.37866592  0.85529302  0.43747317     0.17200
C1298       C  0.38937299  0.86393516  0.42000094    -0.31800
C1299       C  0.39946515  0.84994641  0.40599344     0.21600
C1300       C  0.39839606  0.82833150  0.40886821     0.03800
C1301       C  0.38745856  0.81971488  0.42611914    -0.21600
C1302       C  0.37796506  0.83368674  0.44044367     0.13000
S1303       S  0.36668044  0.86947719  0.45721239    -0.05200
C1304       C  0.36116824  0.84601197  0.46971565    -0.08700
C1305       C  0.36799618  0.82829556  0.45889060    -0.25300
S1306       S  0.41258792  0.81401997  0.39085893    -0.02500
C1307       C  0.42055181  0.83739927  0.37964754    -0.16000
C1308       C  0.41214424  0.85525800  0.38912811    -0.13900
H1309       H  0.39043354  0.88079746  0.41782814     0.21400
H1310       H  0.38703035  0.80287955  0.42868298     0.17500
H1311       H  0.36605430  0.81227589  0.46440680     0.20000
H1312       H  0.41570934  0.87125494  0.38437905     0.13300
C1313       C  0.27287053  0.75461313  0.50161143     0.17200
C1314       C  0.26641244  0.73442679  0.49515496    -0.31800
C1315       C  0.24462086  0.73140956  0.49028111     0.21600
C1316       C  0.22997481  0.74775331  0.49184698     0.03800
C1317       C  0.23648987  0.76795124  0.49787803    -0.21600
C1318       C  0.25820371  0.77096596  0.50266703     0.13000
S1319       S  0.29835961  0.76152705  0.50895196    -0.05200
C1320       C  0.28908900  0.78672766  0.51309689    -0.08700
C1321       C  0.26744774  0.78943726  0.50902998    -0.25300
S1322       S  0.20409248  0.74076727  0.48673344    -0.02500
C1323       C  0.21297737  0.71553116  0.48225723    -0.16000
C1324       C  0.23495809  0.71284150  0.48446687    -0.13900
H1325       H  0.27777987  0.72159496  0.49427594     0.21400
H1326       H  0.22505507  0.78070207  0.49910592     0.17500
H1327       H  0.25888631  0.80414855  0.51080087     0.20000
H1328       H  0.24324712  0.69797908  0.48275753     0.13300
C1329       C  0.26140203  0.89230594  0.59164437     0.17200
C1330       C  0.24977051  0.89776434  0.60972475    -0.31800
C1331       C  0.23810790  0.91652879  0.60931127     0.21600
C1332       C  0.23785645  0.92938336  0.59163244     0.03800
C1333       C  0.24951622  0.92385018  0.57335935    -0.21600
C1334       C  0.26140439  0.90501367  0.57383348     0.13000
S1335       S  0.27680822  0.87036307  0.58961463    -0.05200
C1336       C  0.28378245  0.87823873  0.56452509    -0.08700
C1337       C  0.27431570  0.89696278  0.55805302    -0.25300
S1338       S  0.22264642  0.95165851  0.59476134    -0.02500
C1339       C  0.21668138  0.94338483  0.62008893    -0.16000
C1340       C  0.22604509  0.92440782  0.62556009    -0.13900
H1341       H  0.24994746  0.88785084  0.62363186     0.21400
H1342       H  0.24948315  0.93384381  0.55951982     0.17500
H1343       H  0.27691932  0.90434413  0.54285119     0.20000
H1344       H  0.22417895  0.91675269  0.64074003     0.13300
C1345       C  0.36136377  0.93228124  0.88487937     0.17200
C1346       C  0.36925521  0.91640758  0.89810683    -0.31800
C1347       C  0.35425832  0.90334600  0.90825248     0.21600
C1348       C  0.33237674  0.90553654  0.90491804     0.03800
C1349       C  0.32449981  0.92121668  0.89146571    -0.21600
C1350       C  0.33946572  0.93467773  0.88181879     0.13000
S1351       S  0.37679404  0.95095684  0.87262745    -0.05200
C1352       C  0.35346688  0.96243588  0.86377345    -0.08700
C1353       C  0.33486178  0.95191819  0.86969147    -0.25300
S1354       S  0.31679126  0.88870741  0.91942099    -0.02500
C1355       C  0.33998122  0.87895949  0.93045488    -0.16000
C1356       C  0.35870665  0.88809388  0.92287594    -0.13900
H1357       H  0.38634118  0.91479203  0.90097895     0.21400
H1358       H  0.30736718  0.92332858  0.88921252     0.17500
H1359       H  0.31871921  0.95706606  0.86593238     0.20000
H1360       H  0.37474008  0.88411131  0.92816315     0.13300
C1361       C  0.24003802  0.00168664  0.74557474     0.17200
C1362       C  0.24827146  0.01094278  0.76402461    -0.31800
C1363       C  0.27013858  0.00798544  0.76849299     0.21600
C1364       C  0.28317074  0.99622327  0.75521535     0.03800
C1365       C  0.27498998  0.98711872  0.73670221    -0.21600
C1366       C  0.25319621  0.99022221  0.73215593     0.13000
S1367       S  0.21394623  0.00329676  0.73739443    -0.05200
C1368       C  0.22093184  0.98867751  0.71550454    -0.08700
C1369       C  0.24236326  0.98287834  0.71477315    -0.25300
S1370       S  0.30913186  0.99415777  0.76351260    -0.02500
C1371       C  0.30250937  0.00942957  0.78507802    -0.16000
C1372       C  0.28117770  0.01568483  0.78565538    -0.13900
H1373       H  0.23806717  0.02004766  0.77445128     0.21400
H1374       H  0.28519721  0.97802016  0.72626382     0.17500
H1375       H  0.24961257  0.97372836  0.70220172     0.20000
H1376       H  0.27410523  0.02523003  0.79801479     0.13300
C1377       C  0.40393900  0.16799171  0.59572333     0.17200
C1378       C  0.38817094  0.17416939  0.58127809    -0.31800
C1379       C  0.38357897  0.16049200  0.56448046     0.21600
C1380       C  0.39390973  0.14130937  0.56226753     0.03800
C1381       C  0.40962963  0.13508136  0.57678356    -0.21600
C1382       C  0.41447666  0.14892765  0.59340589     0.13000
S1383       S  0.41235664  0.18266806  0.61680239    -0.05200
C1384       C  0.43039964  0.16297943  0.62245422    -0.08700
C1385       C  0.42970992  0.14600423  0.60868177    -0.25300
S1386       S  0.38653732  0.12739683  0.54026031    -0.02500
C1387       C  0.36976664  0.14790587  0.53378136    -0.16000
C1388       C  0.36970914  0.16431369  0.54822402    -0.13900
H1389       H  0.38010807  0.18921764  0.58282117     0.21400
H1390       H  0.41804177  0.12025108  0.57496735     0.17500
H1391       H  0.43993023  0.13225140  0.60973516     0.20000
H1392       H  0.36048461  0.17867247  0.54654056     0.13300
C1393       C  0.59531908  0.17826515  0.59869895     0.17200
C1394       C  0.57945875  0.18678160  0.61188220    -0.31800
C1395       C  0.56544823  0.17276270  0.62210265     0.21600
C1396       C  0.56735481  0.15116398  0.61969271     0.03800
C1397       C  0.58335027  0.14261588  0.60661418    -0.21600
C1398       C  0.59709967  0.15668087  0.59604354     0.13000
S1399       S  0.61319014  0.19270050  0.58413009    -0.05200
C1400       C  0.62295840  0.16944474  0.57403728    -0.08700
C1401       C  0.61294713  0.15152844  0.58188708    -0.25300
S1402       S  0.54820876  0.13694550  0.63293809    -0.02500
C1403       C  0.53732296  0.16038921  0.64148954    -0.16000
C1404       C  0.54829146  0.17812250  0.63456721    -0.13900
H1405       H  0.57778819  0.20364489  0.61371228     0.21400
H1406       H  0.58469721  0.12576920  0.60437938     0.17500
H1407       H  0.61689661  0.13557617  0.57728415     0.20000
H1408       H  0.54362207  0.19416382  0.63804335     0.13300
C1409       C  0.43845445  0.09223715  0.74367868     0.17200
C1410       C  0.43484266  0.07374051  0.75545043    -0.31800
C1411       C  0.41760420  0.07363763  0.76988979     0.21600
C1412       C  0.40485207  0.09131131  0.77255401     0.03800
C1413       C  0.40851046  0.10969865  0.76093838    -0.21600
C1414       C  0.42543077  0.10969504  0.74637652     0.13000
S1415       S  0.45808736  0.09564491  0.72496679    -0.05200
C1416       C  0.44839811  0.12071205  0.72065360    -0.08700
C1417       C  0.43097887  0.12597452  0.73323578    -0.25300
S1418       S  0.38434856  0.08821951  0.79002072    -0.02500
C1419       C  0.39254108  0.06264406  0.79377722    -0.16000
C1420       C  0.41065844  0.05701017  0.78220878    -0.13900
H1421       H  0.44479969  0.05996671  0.75320832     0.21400
H1422       H  0.39830674  0.12335776  0.76291254     0.17500
H1423       H  0.42275148  0.14097933  0.73279038     0.20000
H1424       H  0.41788039  0.04152761  0.78228869     0.13300
C1425       C  0.94451652  0.34663955  0.13041663     0.17200
C1426       C  0.92956863  0.35464736  0.11596377    -0.31800
C1427       C  0.91540475  0.34031805  0.10636546     0.21600
C1428       C  0.91588604  0.31902562  0.11109831     0.03800
C1429       C  0.93066278  0.31107735  0.12567754    -0.21600
C1430       C  0.94497855  0.32532733  0.13505595     0.13000
S1431       S  0.96420059  0.36101889  0.14262598    -0.05200
C1432       C  0.97331624  0.33794387  0.15371381    -0.08700
C1433       C  0.96134844  0.32030259  0.14848058    -0.25300
S1434       S  0.89759208  0.30417985  0.09753169    -0.02500
C1435       C  0.88916111  0.32690320  0.08532625    -0.16000
C1436       C  0.90009100  0.34491786  0.09157206    -0.13900
H1437       H  0.92928568  0.37123423  0.11202757     0.21400
H1438       H  0.93128320  0.29441719  0.12923435     0.17500
H1439       H  0.96505477  0.30441813  0.15346762     0.20000
H1440       H  0.89694458  0.36059196  0.08562874     0.13300
C1441       C  0.88922210  0.35098754  0.95115734     0.17200
C1442       C  0.90218841  0.36046499  0.93566762    -0.31800
C1443       C  0.90940279  0.34788099  0.91882289     0.21600
C1444       C  0.90364559  0.32685944  0.91722285     0.03800
C1445       C  0.89070180  0.31736960  0.93273165    -0.21600
C1446       C  0.88386419  0.32984393  0.94980529     0.13000
S1447       S  0.87935754  0.36336816  0.97317549    -0.05200
C1448       C  0.86842778  0.33967217  0.98096478    -0.08700
C1449       C  0.87206120  0.32325243  0.96692754    -0.25300
S1450       S  0.91419234  0.31430214  0.89560668    -0.02500
C1451       C  0.92678915  0.33752776  0.88877693    -0.16000
C1452       C  0.92271092  0.35404368  0.90261722    -0.13900
H1453       H  0.90674165  0.37692073  0.93686103     0.21400
H1454       H  0.88643091  0.30083035  0.93172072     0.17500
H1455       H  0.86650037  0.30723262  0.96924745     0.20000
H1456       H  0.92931235  0.36976966  0.90099868     0.13300
C1457       C  0.62865901  0.56506607  0.17847309     0.17200
C1458       C  0.61818778  0.58224035  0.18785439    -0.31800
C1459       C  0.60893964  0.59727816  0.17446542     0.21600
C1460       C  0.61026251  0.59537071  0.15267040     0.03800
C1461       C  0.62111900  0.57841022  0.14328985    -0.21600
C1462       C  0.63021351  0.56326229  0.15668070     0.13000
S1463       S  0.63954977  0.54449394  0.19199661    -0.05200
C1464       C  0.64640760  0.53328697  0.16809922    -0.08700
C1465       C  0.64061397  0.54513223  0.15061113    -0.25300
S1466       S  0.59672886  0.61441314  0.13915609    -0.02500
C1467       C  0.58908238  0.62505241  0.16307934    -0.16000
C1468       C  0.59698649  0.61442135  0.18054709    -0.13900
H1469       H  0.61680149  0.58352160  0.20490522     0.21400
H1470       H  0.62194547  0.57679872  0.12623826     0.17500
H1471       H  0.64331373  0.54045189  0.13434761     0.20000
H1472       H  0.59344112  0.61850185  0.19682388     0.13300
C1473       C  0.76707194  0.51970279  0.26712502     0.17200
C1474       C  0.75325551  0.52307879  0.24999705    -0.31800
C1475       C  0.74274485  0.50550977  0.24137498     0.21600
C1476       C  0.74542079  0.48552912  0.24975934     0.03800
C1477       C  0.75944201  0.48211937  0.26669989    -0.21600
C1478       C  0.77033434  0.49959992  0.27499162     0.13000
S1479       S  0.78169334  0.53883839  0.27955915    -0.05200
C1480       C  0.79275422  0.51944420  0.29507184    -0.08700
C1481       C  0.78522108  0.49934004  0.29088878    -0.25300
S1482       S  0.73076574  0.46636999  0.23741806    -0.02500
C1483       C  0.72147438  0.48535672  0.22036407    -0.16000
C1484       C  0.72921644  0.50544958  0.22431179    -0.13900
H1485       H  0.75098162  0.53871078  0.24350307     0.21400
H1486       H  0.76192926  0.46644630  0.27302266     0.17500
H1487       H  0.79055621  0.48522505  0.29892657     0.20000
H1488       H  0.72504068  0.51930774  0.21522939     0.13300
C1489       C  0.76842463  0.38613338  0.10219520     0.17200
C1490       C  0.75496755  0.39157158  0.11906986    -0.31800
C1491       C  0.74443174  0.41100136  0.11811242     0.21600
C1492       C  0.74719309  0.42456002  0.10117647     0.03800
C1493       C  0.76084609  0.41916784  0.08430663    -0.21600
C1494       C  0.77134631  0.39960683  0.08519651     0.13000
S1495       S  0.78206252  0.36299557  0.10027615    -0.05200
C1496       C  0.79185017  0.37134430  0.07621015    -0.08700
C1497       C  0.78491844  0.39121963  0.07020829    -0.25300
S1498       S  0.73262694  0.44734919  0.10311584    -0.02500
C1499       C  0.72286162  0.43846726  0.12702043    -0.16000
C1500       C  0.73055443  0.41886557  0.13292212    -0.13900
H1501       H  0.75265951  0.38101423  0.13231026     0.21400
H1502       H  0.76304034  0.42966188  0.07100744     0.17500
H1503       H  0.78936514  0.39898279  0.05561792     0.20000
H1504       H  0.72620199  0.41074564  0.14735459     0.13300
C1505       C  0.64270294  0.09447643  0.90213376     0.17200
C1506       C  0.63328078  0.07797420  0.89059568    -0.31800
C1507       C  0.64701284  0.06458915  0.87921569     0.21600
C1508       C  0.66906566  0.06773872  0.87919828     0.03800
C1509       C  0.67838157  0.08439270  0.89035080    -0.21600
C1510       C  0.66475645  0.09753991  0.90189813     0.13000
S1511       S  0.62919292  0.11165487  0.91810874    -0.05200
C1512       C  0.65357864  0.12290383  0.92452256    -0.08700
C1513       C  0.67105914  0.11385073  0.91459059    -0.25300
S1514       S  0.68324877  0.04931977  0.86564412    -0.02500
C1515       C  0.65931946  0.03703484  0.85986360    -0.16000
C1516       C  0.64124924  0.04699069  0.86787666    -0.13900
H1517       H  0.61606333  0.07535521  0.89092339     0.21400
H1518       H  0.69566033  0.08666366  0.89049286     0.17500
H1519       H  0.68761567  0.11862477  0.91693920     0.20000
H1520       H  0.62492818  0.04131832  0.86606794     0.13300
C1521       C  0.74119497  0.23940072  0.98691157     0.17200
C1522       C  0.75653054  0.25541324  0.98447544    -0.31800
C1523       C  0.76744177  0.26227342  0.00262857     0.21600
C1524       C  0.76346764  0.25345190  0.02228864     0.03800
C1525       C  0.74795589  0.23765371  0.02476002    -0.21600
C1526       C  0.73689965  0.23096188  0.00667457     0.13000
S1527       S  0.72616603  0.22880076  0.96693214    -0.05200
C1528       C  0.71376791  0.21313114  0.98552689    -0.08700
C1529       C  0.72106035  0.21603348  0.00599084    -0.25300
S1530       S  0.77860582  0.26375006  0.04229853    -0.02500
C1531       C  0.79010519  0.28044442  0.02407374    -0.16000
C1532       C  0.78262097  0.27788812  0.00359308    -0.13900
H1533       H  0.75976327  0.26227286  0.96913783     0.21400
H1534       H  0.74459314  0.23091482  0.04012463     0.17500
H1535       H  0.71501450  0.20768387  0.01968186     0.20000
H1536       H  0.78795309  0.28704391  0.99013973     0.13300
C1537       C  0.58503735  0.42353884  0.85551870     0.17200
C1538       C  0.59331118  0.44238599  0.86382762    -0.31800
C1539       C  0.60992348  0.45237793  0.85260391     0.21600
C1540       C  0.61760809  0.44414752  0.83375675     0.03800
C1541       C  0.60930661  0.42538474  0.82545124    -0.21600
C1542       C  0.59299161  0.41522894  0.83681867     0.13000
S1543       S  0.56532488  0.40865021  0.86694857    -0.05200
C1544       C  0.56799962  0.39097425  0.84639515    -0.08700
C1545       C  0.58329992  0.39655566  0.83151280    -0.25300
S1546       S  0.63759919  0.45857899  0.82235179    -0.02500
C1547       C  0.63606813  0.47570377  0.84340740    -0.16000
C1548       C  0.62052504  0.47052757  0.85827999    -0.13900
H1549       H  0.58724924  0.44883475  0.87852143     0.21400
H1550       H  0.61546090  0.41886595  0.81083029     0.17500
H1551       H  0.58725776  0.38735045  0.81763944     0.20000
H1552       H  0.61703896  0.47964655  0.87233779     0.13300
C1553       C  0.51108215  0.25574504  0.77562819     0.17200
C1554       C  0.50680565  0.23549942  0.76810174    -0.31800
C1555       C  0.49969795  0.23346335  0.74726646     0.21600
C1556       C  0.49674759  0.25082092  0.73434928     0.03800
C1557       C  0.50125998  0.27123021  0.74185209    -0.21600
C1558       C  0.50861125  0.27326750  0.76280672     0.13000
S1559       S  0.51897101  0.26116496  0.80076997    -0.05200
C1560       C  0.51924578  0.28741969  0.79420320    -0.08700
C1561       C  0.51357732  0.29162876  0.77337865    -0.25300
S1562       S  0.48777746  0.24458032  0.70948921    -0.02500
C1563       C  0.48855578  0.21837699  0.71666356    -0.16000
C1564       C  0.49508921  0.21494416  0.73725311    -0.13900
H1565       H  0.50885606  0.22182431  0.77816324     0.21400
H1566       H  0.49908966  0.28490098  0.73183215     0.17500
H1567       H  0.51239093  0.30724813  0.76661750     0.20000
H1568       H  0.49661249  0.19956385  0.74452028     0.13300
C1569       C  0.59393356  0.27587708  0.90616851     0.17200
C1570       C  0.61236164  0.26570852  0.91336578    -0.31800
C1571       C  0.60981040  0.25019557  0.92880514     0.21600
C1572       C  0.58986380  0.24519561  0.93718040     0.03800
C1573       C  0.57133365  0.25563672  0.93014917    -0.21600
C1574       C  0.57383841  0.27094733  0.91427984     0.13000
S1575       S  0.59380232  0.29404449  0.88645044    -0.05200
C1576       C  0.56630956  0.29502808  0.88882601    -0.08700
C1577       C  0.55781228  0.28201883  0.90437212    -0.25300
S1578       S  0.59037157  0.22485186  0.95495728    -0.02500
C1579       C  0.61761393  0.22293684  0.95050125    -0.16000
C1580       C  0.62570198  0.23762227  0.93644436    -0.13900
H1581       H  0.62800835  0.26927198  0.90669688     0.21400
H1582       H  0.55561453  0.25155388  0.93628327     0.17500
H1583       H  0.54085817  0.28036968  0.90784706     0.20000
H1584       H  0.64232587  0.23851822  0.93138347     0.13300
C1585       C  0.59089362  0.15106867  0.41275027     0.17200
C1586       C  0.60163689  0.14188896  0.42988847    -0.31800
C1587       C  0.61456001  0.15494374  0.44245812     0.21600
C1588       C  0.61641949  0.17629521  0.43829533     0.03800
C1589       C  0.60564322  0.18549990  0.42115987    -0.21600
C1590       C  0.59292686  0.17237126  0.40842317     0.13000
S1591       S  0.57492207  0.13772807  0.39542817    -0.05200
C1592       C  0.57104079  0.16098509  0.38197870    -0.08700
C1593       C  0.58153057  0.17819201  0.39075352    -0.25300
S1594       S  0.63247931  0.18952624  0.45564292    -0.02500
C1595       C  0.63697587  0.16603479  0.46854620    -0.16000
C1596       C  0.62644259  0.14891569  0.45973173    -0.13900
H1597       H  0.60010321  0.12521382  0.43318954     0.21400
H1598       H  0.60719836  0.20216879  0.41784151     0.17500
H1599       H  0.58100227  0.19403408  0.38445528     0.20000
H1600       H  0.62708739  0.13301697  0.46587614     0.13300
C1601       C  0.43512503  0.14580767  0.37026435     0.17200
C1602       C  0.41790292  0.13685705  0.38153103    -0.31800
C1603       C  0.40708980  0.14972407  0.39619828     0.21600
C1604       C  0.41262285  0.17071143  0.39885922     0.03800
C1605       C  0.42944105  0.17968715  0.38734722    -0.21600
C1606       C  0.44068386  0.16671720  0.37333234     0.13000
S1607       S  0.45224813  0.13248265  0.35374329    -0.05200
C1608       C  0.46724867  0.15525503  0.35163359    -0.08700
C1609       C  0.45883841  0.17222204  0.36257327    -0.25300
S1610       S  0.39844028  0.18358994  0.41793438    -0.02500
C1611       C  0.38523263  0.16037387  0.42296626    -0.16000
C1612       C  0.39128961  0.14366255  0.41009875    -0.13900
H1613       H  0.41378000  0.12038611  0.37969054     0.21400
H1614       H  0.43419658  0.19589959  0.38990642     0.17500
H1615       H  0.46632805  0.18759430  0.36359440     0.20000
H1616       H  0.38477884  0.12787405  0.41115361     0.13300
C1617       C  0.64818281  0.11499649  0.05945436     0.17200
C1618       C  0.63968296  0.10343782  0.07634224    -0.31800
C1619       C  0.65383222  0.09086911  0.08799671     0.21600
C1620       C  0.67554641  0.08993027  0.08320501     0.03800
C1621       C  0.68403111  0.10139207  0.06622960    -0.21600
C1622       C  0.66984167  0.11384330  0.05447474     0.13000
S1623       S  0.63362269  0.13095340  0.04319001    -0.05200
C1624       C  0.65688874  0.13580801  0.02930871    -0.08700
C1625       C  0.67491746  0.12574875  0.03716513    -0.25300
S1626       S  0.69007491  0.07402395  0.09955378    -0.02500
C1627       C  0.66660420  0.06852542  0.11288544    -0.16000
C1628       C  0.64859428  0.07849231  0.10491793    -0.13900
H1629       H  0.62271009  0.10415390  0.08020393     0.21400
H1630       H  0.70098761  0.10059229  0.06229978     0.17500
H1631       H  0.69088758  0.12687782  0.03037832     0.20000
H1632       H  0.63250492  0.07691719  0.11132066     0.13300
C1633       C  0.64529365  0.91487322  0.08353763     0.17200
C1634       C  0.63571750  0.93100537  0.09540055    -0.31800
C1635       C  0.64872735  0.94205415  0.10971907     0.21600
C1636       C  0.67027525  0.93713156  0.11212234     0.03800
C1637       C  0.67976617  0.92091111  0.10043430    -0.21600
C1638       C  0.66682521  0.90996931  0.08607632     0.13000
S1639       S  0.63243979  0.89983331  0.06511484    -0.05200
C1640       C  0.65631890  0.88677769  0.06088610    -0.08700
C1641       C  0.67324398  0.89385418  0.07313661    -0.25300
S1642       S  0.68371817  0.95297458  0.12930299    -0.02500
C1643       C  0.66015563  0.96656790  0.13331037    -0.16000
C1644       C  0.64274362  0.95889354  0.12202800    -0.13900
H1645       H  0.61890747  0.93496061  0.09334699     0.21400
H1646       H  0.69666571  0.91718206  0.10223195     0.17500
H1647       H  0.68936838  0.88745478  0.07270050     0.20000
H1648       H  0.62684726  0.96581508  0.12211405     0.13300
C1649       C  0.59433618  0.07135980  0.23558446     0.17200
C1650       C  0.57710560  0.07611525  0.24912467    -0.31800
C1651       C  0.57829273  0.09483827  0.26092879     0.21600
C1652       C  0.59589580  0.10815230  0.25934378     0.03800
C1653       C  0.61304213  0.10342386  0.24584717    -0.21600
C1654       C  0.61181010  0.08481931  0.23402816     0.13000
S1655       S  0.59620302  0.04944787  0.21988328    -0.05200
C1656       C  0.62072739  0.05865360  0.21114589    -0.08700
C1657       C  0.62689963  0.07766167  0.22004498    -0.25300
S1658       S  0.59435456  0.13015767  0.27468278    -0.02500
C1659       C  0.56964381  0.12150826  0.28337114    -0.16000
C1660       C  0.56311457  0.10244782  0.27475183    -0.13900
H1661       H  0.56334423  0.06570439  0.25036414     0.21400
H1662       H  0.62678068  0.11388366  0.24454673     0.17500
H1663       H  0.64180985  0.08581168  0.21655223     0.20000
H1664       H  0.54798922  0.09471942  0.27821299     0.13300
C1665       C  0.91320380  0.90388970  0.33095024     0.17200
C1666       C  0.93019122  0.89155906  0.32343827    -0.31800
C1667       C  0.94203590  0.88003690  0.33826853     0.21600
C1668       C  0.93708723  0.88048057  0.35962968     0.03800
C1669       C  0.92018319  0.89297166  0.36717843    -0.21600
C1670       C  0.90848928  0.90472204  0.35235594     0.13000
S1671       S  0.89683556  0.91892351  0.31547005    -0.05200
C1672       C  0.88365947  0.92666434  0.33809457    -0.08700
C1673       C  0.89163566  0.91791831  0.35656512    -0.25300
S1674       S  0.95339264  0.86511885  0.37495577    -0.02500
C1675       C  0.96724547  0.85842474  0.35235923    -0.16000
C1676       C  0.95936781  0.86752829  0.33404257    -0.13900
H1677       H  0.93406681  0.89102664  0.30675919     0.21400
H1678       H  0.91636234  0.89357150  0.38386772     0.17500
H1679       H  0.88530030  0.92091520  0.37222657     0.20000
H1680       H  0.96605942  0.86517558  0.31841264     0.13300
C1681       C  0.90218316  0.08910162  0.33402186     0.17200
C1682       C  0.88861832  0.07429282  0.32446496    -0.31800
C1683       C  0.87873693  0.05930037  0.33752943     0.21600
C1684       C  0.88199685  0.05911711  0.35919776     0.03800
C1685       C  0.89552199  0.07397116  0.36876495    -0.21600
C1686       C  0.90558369  0.08884729  0.35567002     0.13000
S1687       S  0.91611829  0.10826421  0.32088264    -0.05200
C1688       C  0.92672888  0.11596818  0.34480412    -0.08700
C1689       C  0.91970213  0.10419169  0.36192498    -0.25300
S1690       S  0.86919356  0.03904648  0.37211987    -0.02500
C1691       C  0.85967461  0.03063947  0.34800795    -0.16000
C1692       C  0.86588718  0.04305276  0.33105122    -0.13900
H1693       H  0.88613315  0.07424335  0.30749496     0.21400
H1694       H  0.89837135  0.07373147  0.38567392     0.17500
H1695       H  0.92477461  0.10665591  0.37812359     0.20000
H1696       H  0.86182468  0.03990733  0.31468935     0.13300
C1697       C  0.75165442  0.98627702  0.26816896     0.17200
C1698       C  0.73102593  0.98908403  0.26003702    -0.31800
C1699       C  0.72916405  0.99898584  0.24041668     0.21600
C1700       C  0.74703976  0.00579347  0.22923731     0.03800
C1701       C  0.76780654  0.00258302  0.23720052    -0.21600
C1702       C  0.76968259  0.99265024  0.25693539     0.13000
S1703       S  0.75690760  0.97612489  0.29246263    -0.05200
C1704       C  0.78372254  0.98029730  0.28752909    -0.08700
C1705       C  0.78830624  0.98889719  0.26789695    -0.25300
S1706       S  0.74107676  0.01795506  0.20587315    -0.02500
C1707       C  0.71431184  0.01344325  0.21121072    -0.16000
C1708       C  0.71040620  0.00325328  0.23014314    -0.13900
H1709       H  0.71694587  0.98409821  0.26884921     0.21400
H1710       H  0.78186009  0.00788563  0.22855106     0.17500
H1711       H  0.80424432  0.99311339  0.26241931     0.20000
H1712       H  0.69461147  0.99904159  0.23604042     0.13300
C1713       C  0.58551316  0.85936085  0.40685813     0.17200
C1714       C  0.56757359  0.86823665  0.39688608    -0.31800
C1715       C  0.55506232  0.85505944  0.38403431     0.21600
C1716       C  0.56024695  0.83400853  0.38128756     0.03800
C1717       C  0.57835801  0.82526526  0.39093654    -0.21600
C1718       C  0.59080619  0.83838305  0.40381766     0.13000
S1719       S  0.60192522  0.87227095  0.42410504    -0.05200
C1720       C  0.61596237  0.84912413  0.42735398    -0.08700
C1721       C  0.60840117  0.83245957  0.41537329    -0.25300
S1722       S  0.54245640  0.82021115  0.36629166    -0.02500
C1723       C  0.52794061  0.84303011  0.36342770    -0.16000
C1724       C  0.53657418  0.86043830  0.37354274    -0.13900
H1725       H  0.56330019  0.88457320  0.39940079     0.21400
H1726       H  0.58228571  0.80878317  0.38889036     0.17500
H1727       H  0.61494837  0.81668307  0.41566455     0.20000
H1728       H  0.52934208  0.87592850  0.37380399     0.13300
C1729       C  0.59166853  0.82796499  0.59246474     0.17200
C1730       C  0.60531481  0.82027041  0.57665493    -0.31800
C1731       C  0.61233518  0.83445364  0.56113473     0.21600
C1732       C  0.60621313  0.85542233  0.56140335     0.03800
C1733       C  0.59225606  0.86302929  0.57700195    -0.21600
C1734       C  0.58512686  0.84881237  0.59244205     0.13000
S1735       S  0.58179463  0.81341603  0.61298762    -0.05200
C1736       C  0.56845094  0.83556902  0.62141776    -0.08700
C1737       C  0.57165249  0.85322836  0.60895114    -0.25300
S1738       S  0.61706921  0.87023713  0.54153580    -0.02500
C1739       C  0.62965555  0.84786280  0.53256721    -0.16000
C1740       C  0.62560025  0.82997623  0.54446863    -0.13900
H1741       H  0.61033989  0.80394566  0.57651702     0.21400
H1742       H  0.58726722  0.87936209  0.57717257     0.17500
H1743       H  0.56462822  0.86853981  0.61191977     0.20000
H1744       H  0.63210641  0.81451663  0.54113236     0.13300
C1745       C  0.76209376  0.90953866  0.39399746     0.17200
C1746       C  0.74995874  0.89216140  0.40037036    -0.31800
C1747       C  0.73666453  0.89456285  0.41801991     0.21600
C1748       C  0.73549451  0.91335101  0.42909215     0.03800
C1749       C  0.74779217  0.93082586  0.42274747    -0.21600
C1750       C  0.76108200  0.92845504  0.40489910     0.13000
S1751       S  0.77877638  0.90966518  0.37267664    -0.05200
C1752       C  0.78466886  0.93551169  0.37837641    -0.08700
C1753       C  0.77411631  0.94351339  0.39597207    -0.25300
S1754       S  0.71794632  0.91275434  0.45000779    -0.02500
C1755       C  0.71214781  0.88701758  0.44343038    -0.16000
C1756       C  0.72339797  0.87950175  0.42613965    -0.13900
H1757       H  0.75069486  0.87742856  0.39180775     0.21400
H1758       H  0.74692645  0.94559827  0.43120852     0.17500
H1759       H  0.77580015  0.95944039  0.40180580     0.20000
H1760       H  0.72183842  0.86378104  0.41969914     0.13300
C1761       C  0.34600636  0.08186674  0.09604242     0.17200
C1762       C  0.35409534  0.06413059  0.10644971    -0.31800
C1763       C  0.33970010  0.05197703  0.11833959     0.21600
C1764       C  0.31806144  0.05697934  0.11942006     0.03800
C1765       C  0.30994294  0.07474699  0.10896973    -0.21600
C1766       C  0.32445739  0.08717303  0.09741443     0.13000
S1767       S  0.36100183  0.09856641  0.08098443    -0.05200
C1768       C  0.33808610  0.11301191  0.07648666    -0.08700
C1769       C  0.31981612  0.10518960  0.08631147    -0.25300
S1770       S  0.30324422  0.04010424  0.13458843    -0.02500
C1771       C  0.32657280  0.02659778  0.14007836    -0.16000
C1772       C  0.34469467  0.03460124  0.13021140    -0.13900
H1773       H  0.37097999  0.06009587  0.10549383     0.21400
H1774       H  0.29306146  0.07880845  0.10995470     0.17500
H1775       H  0.30395923  0.11208191  0.08508468     0.20000
H1776       H  0.36067240  0.02803475  0.13162909     0.13300
C1777       C  0.33382282  0.11090746  0.94310961     0.17200
C1778       C  0.32507243  0.10011208  0.92578463    -0.31800
C1779       C  0.33889717  0.08759247  0.91361066     0.21600
C1780       C  0.36052146  0.08590798  0.91849601     0.03800
C1781       C  0.36933916  0.09692149  0.93568263    -0.21600
C1782       C  0.35549803  0.10945903  0.94786330     0.13000
S1783       S  0.31949996  0.12618882  0.96022588    -0.05200
C1784       C  0.34294843  0.13095167  0.97387766    -0.08700
C1785       C  0.36087613  0.12105363  0.96546346    -0.25300
S1786       S  0.37446861  0.06942791  0.90217218    -0.02500
C1787       C  0.35096449  0.06479929  0.88852225    -0.16000
C1788       C  0.33334192  0.07562577  0.89634263    -0.13900
H1789       H  0.30810246  0.10123972  0.92208884     0.21400
H1790       H  0.38625367  0.09559640  0.93952890     0.17500
H1791       H  0.37687801  0.12191553  0.97212974     0.20000
H1792       H  0.31726470  0.07464769  0.88985430     0.13300
C1793       C  0.41071486  0.40945154  0.16653931     0.17200
C1794       C  0.40024567  0.42656009  0.17575861    -0.31800
C1795       C  0.38933751  0.44038042  0.16239544     0.21600
C1796       C  0.38848264  0.43727320  0.14073037     0.03800
C1797       C  0.39896518  0.42000938  0.13143135    -0.21600
C1798       C  0.41026496  0.40629420  0.14485331     0.13000
S1799       S  0.42548562  0.39154433  0.18022778    -0.05200
C1800       C  0.43159396  0.37971837  0.15653875    -0.08700
C1801       C  0.42234069  0.38917502  0.13898172    -0.25300
S1802       S  0.37475193  0.45651904  0.12742578    -0.02500
C1803       C  0.37064546  0.46889984  0.15136056    -0.16000
C1804       C  0.37915360  0.45835496  0.16852624    -0.13900
H1805       H  0.40093533  0.42924013  0.19269248     0.21400
H1806       H  0.39870121  0.41761327  0.11444924     0.17500
H1807       H  0.42462300  0.38400981  0.12279735     0.20000
H1808       H  0.37837494  0.46384919  0.18474718     0.13300
C1809       C  0.56946627  0.38346324  0.14315194     0.17200
C1810       C  0.58537960  0.39737553  0.13583691    -0.31800
C1811       C  0.59895968  0.40671189  0.15092090     0.21600
C1812       C  0.59712292  0.40201046  0.17224040     0.03800
C1813       C  0.58138796  0.38800158  0.17950167    -0.21600
C1814       C  0.56751417  0.37909978  0.16452764     0.13000
S1815       S  0.55033322  0.37159321  0.12774302    -0.05200
C1816       C  0.53933478  0.36117765  0.15046504    -0.08700
C1817       C  0.55033097  0.36634214  0.16878464    -0.25300
S1818       S  0.61481224  0.41514844  0.18809570    -0.02500
C1819       C  0.62465433  0.42743339  0.16585783    -0.16000
C1820       C  0.61475076  0.42135914  0.14715835    -0.13900
H1821       H  0.58675234  0.40117590  0.11922186     0.21400
H1822       H  0.57966752  0.38460969  0.19617917     0.17500
H1823       H  0.54558128  0.36153988  0.18453001     0.20000
H1824       H  0.61883552  0.42739361  0.13166925     0.13300
C1825       C  0.49943388  0.26796438  0.23895139     0.17200
C1826       C  0.50369232  0.26082595  0.25952266    -0.31800
C1827       C  0.51057300  0.23992409  0.26191292     0.21600
C1828       C  0.51288492  0.22672270  0.24459387     0.03800
C1829       C  0.50893798  0.23392646  0.22407556    -0.21600
C1830       C  0.50226221  0.25481227  0.22168329     0.13000
S1831       S  0.49070682  0.29266074  0.23255852    -0.05200
C1832       C  0.49134647  0.28523606  0.20635655    -0.08700
C1833       C  0.49779255  0.26465911  0.20296763    -0.25300
S1834       S  0.52019367  0.20165250  0.25069973    -0.02500
C1835       C  0.52043492  0.20897294  0.27689034    -0.16000
C1836       C  0.51517611  0.22985239  0.28057552    -0.13900
H1837       H  0.50161588  0.27105702  0.27305269     0.21400
H1838       H  0.51084416  0.22364051  0.21055979     0.17500
H1839       H  0.49914869  0.25729096  0.18759146     0.20000
H1840       H  0.51409242  0.23703882  0.29605627     0.13300
C1841       C  0.43532753  0.25735387  0.08711106     0.17200
C1842       C  0.42894883  0.24530641  0.06953450    -0.31800
C1843       C  0.41329367  0.22961744  0.07278482     0.21600
C1844       C  0.40474199  0.22594532  0.09270184     0.03800
C1845       C  0.41117733  0.23781845  0.11015592    -0.21600
C1846       C  0.42641161  0.25365133  0.10684711     0.13000
S1847       S  0.45351938  0.27766545  0.08674730    -0.05200
C1848       C  0.44860350  0.28122886  0.11335739    -0.08700
C1849       C  0.43385899  0.26726993  0.12183354    -0.25300
S1850       S  0.38530968  0.20713906  0.09353385    -0.02500
C1851       C  0.38822802  0.20425994  0.06664709    -0.16000
C1852       C  0.40390649  0.21703166  0.05766775    -0.13900
H1853       H  0.43554343  0.24831973  0.05396287     0.21400
H1854       H  0.40418851  0.23515579  0.12563596     0.17500
H1855       H  0.42876988  0.26711608  0.13822441     0.20000
H1856       H  0.40758208  0.21769490  0.04094073     0.13300
C1857       C  0.06156806  0.36054345  0.88954670     0.17200
C1858       C  0.07659965  0.36766946  0.90448047    -0.31800
C1859       C  0.09252985  0.35346533  0.91110461     0.21600
C1860       C  0.09372481  0.33326235  0.90291014     0.03800
C1861       C  0.07891227  0.32627172  0.88783974    -0.21600
C1862       C  0.06277653  0.34026540  0.88156106     0.13000
S1863       S  0.03993168  0.37456962  0.88054946    -0.05200
C1864       C  0.03235402  0.35268051  0.86622060    -0.08700
C1865       C  0.04618063  0.33573738  0.86817562    -0.25300
S1866       S  0.11367097  0.31813588  0.91345597    -0.02500
C1867       C  0.12035215  0.33908464  0.92939862    -0.16000
C1868       C  0.10784407  0.35691232  0.92630417    -0.13900
H1869       H  0.07555752  0.38336067  0.91109639     0.21400
H1870       H  0.07956461  0.31036930  0.88169953     0.17500
H1871       H  0.04379199  0.32055330  0.86074039     0.20000
H1872       H  0.10963727  0.37150988  0.93497881     0.13300
C1873       C  0.11308166  0.34943512  0.06499316     0.17200
C1874       C  0.10014119  0.35728462  0.08135682    -0.31800
C1875       C  0.09201818  0.34282940  0.09615391     0.21600
C1876       C  0.09653792  0.32151933  0.09475166     0.03800
C1877       C  0.10925762  0.31366355  0.07828530    -0.21600
C1878       C  0.11738517  0.32809007  0.06352392     0.13000
S1879       S  0.12479359  0.36429145  0.04554194    -0.05200
C1880       C  0.13544350  0.34143839  0.03529397    -0.08700
C1881       C  0.13009905  0.32342692  0.04650514    -0.25300
S1882       S  0.08563726  0.30662661  0.11455317    -0.02500
C1883       C  0.07476919  0.32932413  0.12481648    -0.16000
C1884       C  0.07941873  0.34737806  0.11332821    -0.13900
H1885       H  0.09666290  0.37394217  0.08258448     0.21400
H1886       H  0.11279611  0.29701515  0.07710179     0.17500
H1887       H  0.13523025  0.30766899  0.04237252     0.20000
H1888       H  0.07405025  0.36305769  0.11746833     0.13300
C1889       C  0.27643385  0.24881289  0.01424481     0.17200
C1890       C  0.26900854  0.26911777  0.00955886    -0.31800
C1891       C  0.24737377  0.27136161  0.00376754     0.21600
C1892       C  0.23370209  0.25415665  0.00266265     0.03800
C1893       C  0.24101551  0.23390072  0.00782367    -0.21600
C1894       C  0.26265682  0.23165397  0.01365366     0.13000
S1895       S  0.30241419  0.24261182  0.02027486    -0.05200
C1896       C  0.29461026  0.21664165  0.02236721    -0.08700
C1897       C  0.27294826  0.21318092  0.01859422    -0.25300
S1898       S  0.20826628  0.26014292  0.99437477    -0.02500
C1899       C  0.21604751  0.28615761  0.99263164    -0.16000
C1900       C  0.23728524  0.28975370  0.99825133    -0.13900
H1901       H  0.27973575  0.28255742  0.01004936     0.21400
H1902       H  0.23037525  0.22041210  0.00701221     0.17500
H1903       H  0.26529404  0.19785839  0.01875927     0.20000
H1904       H  0.24501387  0.30504222  0.99811521     0.13300
C1905       C  0.43967852  0.38625617  0.86110718     0.17200
C1906       C  0.42467343  0.40034819  0.86960002    -0.31800
C1907       C  0.41030915  0.40996104  0.85554445     0.21600
C1908       C  0.41074402  0.40562447  0.83406316     0.03800
C1909       C  0.42578128  0.39167801  0.82559361    -0.21600
C1910       C  0.44019838  0.38221427  0.83957812     0.13000
S1911       S  0.45909137  0.37348675  0.87520742    -0.05200
C1912       C  0.46815795  0.36303943  0.85171716    -0.08700
C1913       C  0.45645349  0.36891637  0.83412780    -0.25300
S1914       S  0.39182424  0.41853963  0.81964302    -0.02500
C1915       C  0.38325478  0.43003218  0.84275968    -0.16000
C1916       C  0.39459750  0.42412976  0.86062608    -0.13900
H1917       H  0.42431985  0.40379399  0.88635222     0.21400
H1918       H  0.42632401  0.38845090  0.80879938     0.17500
H1919       H  0.46013757  0.36429454  0.81805160     0.20000
H1920       H  0.39136348  0.42972609  0.87647676     0.13300
C1921       C  0.38384230  0.56267408  0.83392657     0.17200
C1922       C  0.39601641  0.57869875  0.82451604    -0.31800
C1923       C  0.40610217  0.59321577  0.83789840     0.21600
C1924       C  0.40415121  0.59178796  0.85969342     0.03800
C1925       C  0.39170863  0.57594246  0.86909015    -0.21600
C1926       C  0.38163126  0.56141053  0.85570925     0.13000
S1927       S  0.37128145  0.54304089  0.82043820    -0.05200
C1928       C  0.36285796  0.53301328  0.84436226    -0.08700
C1929       C  0.36944211  0.54444452  0.86182603    -0.25300
S1930       S  0.41845626  0.61023225  0.87324843    -0.02500
C1931       C  0.42701824  0.62010957  0.84932722    -0.16000
C1932       C  0.41906521  0.60961932  0.83181545    -0.13900
H1933       H  0.39782329  0.57960809  0.80750093     0.21400
H1934       H  0.39024729  0.57478556  0.88611931     0.17500
H1935       H  0.36598787  0.54027302  0.87807884     0.20000
H1936       H  0.42295016  0.61347600  0.81557481     0.13300
C1937       C  0.26148138  0.41110562  0.89646398     0.17200
C1938       C  0.24837735  0.39370770  0.90054555    -0.31800
C1939       C  0.23679034  0.39353512  0.91947172     0.21600
C1940       C  0.23805078  0.40997757  0.93381887     0.03800
C1941       C  0.25111885  0.42761049  0.92962992    -0.21600
C1942       C  0.26286129  0.42775344  0.91058844     0.13000
S1943       S  0.27689816  0.41374179  0.87445986    -0.05200
C1944       C  0.28548460  0.43764319  0.88409120    -0.08700
C1945       C  0.27669284  0.44320277  0.90351075    -0.25300
S1946       S  0.22289759  0.40615235  0.95615358    -0.02500
C1947       C  0.21497726  0.38218369  0.94589987    -0.16000
C1948       C  0.22356877  0.37770785  0.92621767    -0.13900
H1949       H  0.24739227  0.38073807  0.88948145     0.21400
H1950       H  0.25221946  0.44050393  0.94075332     0.17500
H1951       H  0.28021857  0.45762900  0.91192483     0.20000
H1952       H  0.22050829  0.36342476  0.91736264     0.13300
C1953       C  0.83018071  0.59514578  0.59910512     0.17200
C1954       C  0.82222666  0.57919703  0.61214514    -0.31800
C1955       C  0.83656579  0.56366230  0.61885518     0.21600
C1956       C  0.85804927  0.56397090  0.61311146     0.03800
C1957       C  0.86602965  0.57989600  0.59981648    -0.21600
C1958       C  0.85154219  0.59538479  0.59288434     0.13000
S1959       S  0.81513500  0.61531966  0.58936827    -0.05200
C1960       C  0.83769867  0.62409698  0.57639431    -0.08700
C1961       C  0.85592927  0.61197592  0.57967670    -0.25300
S1962       S  0.87271154  0.54361529  0.62349769    -0.02500
C1963       C  0.84947660  0.53461301  0.63536793    -0.16000
C1964       C  0.83158054  0.54686321  0.63138724    -0.13900
H1965       H  0.80545483  0.57886671  0.61684552     0.21400
H1966       H  0.88277053  0.58017685  0.59503351     0.17500
H1967       H  0.87153526  0.61512759  0.57272962     0.20000
H1968       H  0.81560754  0.54366022  0.63747038     0.13300
C1969       C  0.82733286  0.61919410  0.44721936     0.17200
C1970       C  0.81883816  0.60547945  0.43198088    -0.31800
C1971       C  0.83314676  0.59635586  0.41750142     0.21600
C1972       C  0.85498258  0.60059397  0.41827210     0.03800
C1973       C  0.86347766  0.61426744  0.43355066    -0.21600
C1974       C  0.84916068  0.62349711  0.44794079     0.13000
S1975       S  0.81268012  0.63167540  0.46625185    -0.05200
C1976       C  0.83619088  0.64285154  0.47530334    -0.08700
C1977       C  0.85434495  0.63710808  0.46402181    -0.25300
S1978       S  0.86969781  0.58784072  0.39942798    -0.02500
C1979       C  0.84620290  0.57672995  0.39028986    -0.16000
C1980       C  0.82800235  0.58270215  0.40143986    -0.13900
H1981       H  0.80176254  0.60206226  0.43143286     0.21400
H1982       H  0.88056745  0.61757759  0.43419309     0.17500
H1983       H  0.87052638  0.64228806  0.46764585     0.20000
H1984       H  0.81186463  0.57721362  0.39806940     0.13300
C1985       C  0.75171281  0.74003617  0.51449795     0.17200
C1986       C  0.73128582  0.74722645  0.50861214    -0.31800
C1987       C  0.72926726  0.76849680  0.50295980     0.21600
C1988       C  0.74673803  0.78205885  0.50352106     0.03800
C1989       C  0.76714712  0.77484938  0.50922365    -0.21600
C1990       C  0.76922250  0.75355032  0.51451042     0.13000
S1991       S  0.75772514  0.71473301  0.52150107    -0.05200
C1992       C  0.78415716  0.72241232  0.52394035    -0.08700
C1993       C  0.78787679  0.74350431  0.51978092    -0.25300
S1994       S  0.74097744  0.80735778  0.49666530    -0.02500
C1995       C  0.71481127  0.79957062  0.49251619    -0.16000
C1996       C  0.71087099  0.77845106  0.49646271    -0.13900
H1997       H  0.71761357  0.73667570  0.50828648     0.21400
H1998       H  0.78085924  0.78536281  0.50938588     0.17500
H1999       H  0.80348813  0.75103202  0.52031670     0.20000
H2000       H  0.69535751  0.77088338  0.49493893     0.13300
C2001       C  0.88859641  0.94794982  0.64591997     0.17200
C2002       C  0.90207257  0.93220856  0.63784025    -0.31800
C2003       C  0.90888950  0.91637291  0.65175582     0.21600
C2004       C  0.90234749  0.91602575  0.67270429     0.03800
C2005       C  0.88873543  0.93165621  0.68072856    -0.21600
C2006       C  0.88221065  0.94766763  0.66691614     0.13000
S2007       S  0.87944327  0.96915172  0.63195853    -0.05200
C2008       C  0.86719839  0.97788551  0.65475587    -0.08700
C2009       C  0.86994481  0.96479742  0.67206516    -0.25300
S2010       S  0.91298042  0.89589542  0.68719761    -0.02500
C2011       C  0.92656341  0.88793356  0.66485985    -0.16000
C2012       C  0.92273447  0.90024545  0.64714986    -0.13900
H2013       H  0.90738432  0.93253627  0.62153933     0.21400
H2014       H  0.88383488  0.93160891  0.69715855     0.17500
H2015       H  0.86366944  0.96789408  0.68773338     0.20000
H2016       H  0.93004423  0.89777665  0.63180977     0.13300
C2017       C  0.06570274  0.88699631  0.65065055     0.17200
C2018       C  0.08352223  0.89777297  0.64246248    -0.31800
C2019       C  0.09602210  0.90960103  0.65660992     0.21600
C2020       C  0.09136181  0.91029911  0.67803444     0.03800
C2021       C  0.07364747  0.89943586  0.68622569    -0.21600
C2022       C  0.06089650  0.88800094  0.67202419     0.13000
S2023       S  0.04770547  0.87270706  0.63603796    -0.05200
C2024       C  0.03340079  0.86844763  0.65896260    -0.08700
C2025       C  0.04245266  0.87737668  0.67685528    -0.25300
S2026       S  0.10832202  0.92579096  0.69251708    -0.02500
C2027       C  0.12156641  0.93171495  0.66938370    -0.16000
C2028       C  0.11329504  0.92195913  0.65155368    -0.13900
H2029       H  0.08720168  0.89736068  0.62572563     0.21400
H2030       H  0.06969145  0.90022780  0.70289214     0.17500
H2031       H  0.03562256  0.87650573  0.69259303     0.20000
H2032       H  0.11950878  0.92395933  0.63567803     0.13300
C2033       C  0.91387742  0.76199392  0.61585148     0.17200
C2034       C  0.89794417  0.74680763  0.61263876    -0.31800
C2035       C  0.89603326  0.73814241  0.59240566     0.21600
C2036       C  0.90950764  0.74411037  0.57600844     0.03800
C2037       C  0.92570083  0.75922806  0.57929369    -0.21600
C2038       C  0.92749052  0.76810713  0.59959759     0.13000
S2039       S  0.91793127  0.77483590  0.63910419    -0.05200
C2040       C  0.93818799  0.78882741  0.62698804    -0.08700
C2041       C  0.94165005  0.78353015  0.60595470    -0.25300
S2042       S  0.90378819  0.73206461  0.55241949    -0.02500
C2043       C  0.88298332  0.71907020  0.56489932    -0.16000
C2044       C  0.88093294  0.72379357  0.58617544    -0.13900
H2045       H  0.88720015  0.74219950  0.62532555     0.21400
H2046       H  0.93617821  0.76411647  0.56651461     0.17500
H2047       H  0.95359807  0.79076625  0.59582973     0.20000
H2048       H  0.86867291  0.71737236  0.59651803     0.13300
C2049       C  0.14701657  0.59466030  0.59303670     0.17200
C2050       C  0.13778455  0.60583456  0.57619356    -0.31800
C2051       C  0.15170372  0.61679550  0.56257430     0.21600
C2052       C  0.17372112  0.61684899  0.56585686     0.03800
C2053       C  0.18283835  0.60611866  0.58288328    -0.21600
C2054       C  0.16903766  0.59491316  0.59622296     0.13000
S2055       S  0.13332705  0.57890673  0.61035063    -0.05200
C2056       C  0.15761752  0.57249129  0.62172538    -0.08700
C2057       C  0.17517692  0.58240765  0.61272568    -0.25300
S2058       S  0.18814765  0.62972912  0.54703881    -0.02500
C2059       C  0.16435698  0.63520502  0.53443936    -0.16000
C2060       C  0.14616338  0.62752647  0.54453562    -0.13900
H2061       H  0.12064421  0.60544656  0.57344140     0.21400
H2062       H  0.20004746  0.60593001  0.58521745     0.17500
H2063       H  0.19165981  0.58008274  0.61757931     0.20000
H2064       H  0.12994136  0.62907053  0.53863550     0.13300
C2065       C  0.15264635  0.43609033  0.61863054     0.17200
C2066       C  0.14485950  0.41929749  0.60637695    -0.31800
C2067       C  0.15983084  0.40744627  0.59475626     0.21600
C2068       C  0.18162797  0.41183911  0.59562173     0.03800
C2069       C  0.18939256  0.42858081  0.60785051    -0.21600
C2070       C  0.17441065  0.44065809  0.61911558     0.13000
S2071       S  0.13713052  0.45309187  0.63311553    -0.05200
C2072       C  0.16017761  0.46680327  0.63935313    -0.08700
C2073       C  0.17879143  0.45819353  0.63094517    -0.25300
S2074       S  0.19720627  0.39566694  0.58042891    -0.02500
C2075       C  0.17411428  0.38299982  0.57250477    -0.16000
C2076       C  0.15541508  0.39095913  0.58140384    -0.13900
H2077       H  0.12781459  0.41584268  0.60563452     0.21400
H2078       H  0.20640422  0.43227831  0.60828032     0.17500
H2079       H  0.19474315  0.46476826  0.63295814     0.20000
H2080       H  0.13941803  0.38498632  0.57825880     0.13300
C2081       C  0.24822189  0.50435773  0.73356418     0.17200
C2082       C  0.26873656  0.50058138  0.74192571    -0.31800
C2083       C  0.27001782  0.49434650  0.76319877     0.21600
C2084       C  0.25172670  0.49227247  0.77558027     0.03800
C2085       C  0.23133917  0.49557093  0.76712871    -0.21600
C2086       C  0.23004551  0.50152945  0.74592801     0.13000
S2087       S  0.24287218  0.51273212  0.70838388    -0.05200
C2088       C  0.21593261  0.51188898  0.71469542    -0.08700
C2089       C  0.21157553  0.50556526  0.73515119    -0.25300
S2090       S  0.25642615  0.48593258  0.80126757    -0.02500
C2091       C  0.28332098  0.48547158  0.79528343    -0.16000
C2092       C  0.28832886  0.49011139  0.77443960    -0.13900
H2093       H  0.28305258  0.50259476  0.73235437     0.21400
H2094       H  0.21703248  0.49378406  0.77677248     0.17500
H2095       H  0.19562002  0.50427151  0.74192309     0.20000
H2096       H  0.30447120  0.49088874  0.76805862     0.13300
C2097       C  0.09826656  0.67712259  0.91730436     0.17200
C2098       C  0.10964906  0.68489951  0.93473294    -0.31800
C2099       C  0.11733181  0.67028765  0.94949762     0.21600
C2100       C  0.11394373  0.64885330  0.94704047     0.03800
C2101       C  0.10224135  0.64110208  0.92979388    -0.21600
C2102       C  0.09450990  0.65572434  0.91505117     0.13000
S2103       S  0.08789091  0.69221819  0.89744260    -0.05200
C2104       C  0.07808031  0.66948418  0.88616837    -0.08700
C2105       C  0.08283814  0.65127109  0.89726898    -0.25300
S2106       S  0.12552163  0.63368217  0.96620903    -0.02500
C2107       C  0.13487596  0.65648935  0.97770713    -0.16000
C2108       C  0.12909107  0.67476044  0.96720559    -0.13900
H2109       H  0.11255287  0.70162464  0.93662139     0.21400
H2110       H  0.09944951  0.62437068  0.92783728     0.17500
H2111       H  0.07792731  0.63557436  0.89259972     0.20000
H2112       H  0.13369644  0.69050548  0.97202615     0.13300
C2113       C  0.91909279  0.65212351  0.90764276     0.17200
C2114       C  0.93683103  0.64275637  0.89775564    -0.31800
C2115       C  0.94799352  0.65467319  0.88266055     0.21600
C2116       C  0.94159498  0.67493474  0.87753758     0.03800
C2117       C  0.92371691  0.68418451  0.88721802    -0.21600
C2118       C  0.91273169  0.67237946  0.90247271     0.13000
S2119       S  0.90397513  0.64060385  0.92691535    -0.05200
C2120       C  0.88900863  0.66334961  0.92810497    -0.08700
C2121       C  0.89543074  0.67892462  0.91415884    -0.25300
S2122       S  0.95800527  0.68742752  0.86004004    -0.02500
C2123       C  0.97384076  0.66524994  0.85970330    -0.16000
C2124       C  0.96643363  0.64889812  0.87224984    -0.13900
H2125       H  0.94198931  0.62704111  0.90199400     0.21400
H2126       H  0.91890773  0.70011113  0.88340267     0.17500
H2127       H  0.88793345  0.69422279  0.91272891     0.20000
H2128       H  0.97468937  0.63408041  0.87450759     0.13300
C2129       C  0.00249583  0.75918885  0.72935992     0.17200
C2130       C  0.00883885  0.73926053  0.73622909    -0.31800
C2131       C  0.01394407  0.73686812  0.75759566     0.21600
C2132       C  0.01301327  0.75360156  0.77162779     0.03800
C2133       C  0.00630532  0.77361151  0.76479220    -0.21600
C2134       C  0.00094442  0.77596257  0.74331604     0.13000
S2135       S  0.99634832  0.76510003  0.70387027    -0.05200
C2136       C  0.99114756  0.79043190  0.71192200    -0.08700
C2137       C  0.99411770  0.79402443  0.73337882    -0.25300
S2138       S  0.02030196  0.74713110  0.79691792    -0.02500
C2139       C  0.02418316  0.72160491  0.78836957    -0.16000
C2140       C  0.02015525  0.71855165  0.76709338    -0.13900
H2141       H  0.00982059  0.72615093  0.72533255     0.21400
H2142       H  0.00533305  0.78672124  0.77568316     0.17500
H2143       H  0.99187390  0.80905463  0.74112937     0.20000
H2144       H  0.02154276  0.70359999  0.75898858     0.13300
C2145       C  0.07784026  0.59500531  0.76459312     0.17200
C2146       C  0.08091713  0.57729994  0.75154856    -0.31800
C2147       C  0.10079775  0.57530048  0.74112376     0.21600
C2148       C  0.11681017  0.59027907  0.74370350     0.03800
C2149       C  0.11377645  0.60783264  0.75674345    -0.21600
C2150       C  0.09398382  0.60984896  0.76705768     0.13000
S2151       S  0.05489541  0.60068148  0.77844229    -0.05200
C2152       C  0.06726854  0.62326020  0.78756352    -0.08700
C2153       C  0.08805104  0.62600260  0.78017946    -0.25300
S2154       S  0.13956595  0.58552495  0.72957783    -0.02500
C2155       C  0.12759823  0.56304821  0.71986624    -0.16000
C2156       C  0.10693635  0.55949716  0.72743306    -0.13900
H2157       H  0.06833161  0.56569166  0.74950509     0.21400
H2158       H  0.12630764  0.61954646  0.75864827     0.17500
H2159       H  0.09830951  0.63922406  0.78414692     0.20000
H2160       H  0.09688865  0.54631371  0.72294361     0.13300
loop_ 
_geom_bond_atom_site_label_1 
_geom_bond_atom_site_label_2 
_geom_bond_distance 
_geom_bond_site_symmetry_2 
_ccdc_geom_bond_type 
O1            C4   1.263       .  A
O1           Cd6   2.453       .  S
C2           O11   1.266       .  A
C2            O7   1.268       .  A
C2         C2139   1.475       .  S
O3            C9   1.268       .  A
O3           Cd6   2.496       .  S
C4           O12   1.267       .  A
C4         C2104   1.473       .  S
C5           O10   1.260   1_655  A
C5            O8   1.267   1_655  A
C5         C2123   1.469       .  S
Cd6          O13   2.463       .  S
Cd6          O12   2.496       .  S
Cd6          O11   2.447       .  S
Cd6           O7   2.498       .  S
Cd6          O10   2.430       .  S
Cd6           O8   2.515       .  S
C9           O13   1.267       .  A
C9         C2152   1.479       .  S
O14          C17   1.270       .  A
O14         Cd19   2.490       .  S
C15          O24   1.265       .  A
C15          O20   1.269       .  A
C15        C2056   1.473       .  S
O16          C22   1.272       .  A
O16         Cd19   2.522       .  S
C17          O25   1.266       .  A
C17        C2088   1.469       .  S
C18          O23   1.273       .  A
C18          O21   1.265       .  A
C18        C2155   1.478       .  S
Cd19         O26   2.431       .  S
Cd19         O25   2.418       .  S
Cd19         O24   2.463       .  S
Cd19         O20   2.468       .  S
Cd19         O23   2.523       .  S
Cd19         O21   2.417       .  S
C22          O26   1.263       .  A
C22        C2072   1.478       .  S
O27          C30   1.270       .  A
O27         Cd32   2.501       .  S
C28          O37   1.265       .  A
C28          O33   1.268       .  A
C28        C2011   1.476       .  S
O29          C35   1.270       .  A
O29         Cd32   2.508   1_455  S
C30          O38   1.265       .  A
C30        C2136   1.471       .  S
C31          O36   1.271       .  A
C31          O34   1.265       .  A
C31        C2040   1.474       .  S
Cd32         O39   2.416   1_655  S
Cd32         O38   2.423       .  S
Cd32         O37   2.461       .  S
Cd32         O33   2.490       .  S
Cd32         O36   2.506       .  S
Cd32         O34   2.419       .  S
C35          O39   1.263       .  A
C35        C2024   1.472       .  S
O40          C43   1.267       .  A
O40         Cd45   2.486       .  S
C41          O50   1.264       .  A
C41          O46   1.268       .  A
C41        C1960   1.471       .  S
O42          C48   1.269       .  A
O42         Cd45   2.498       .  S
C43          O51   1.265       .  A
C43        C1992   1.471       .  S
C44          O49   1.270       .  A
C44          O47   1.266       .  A
C44        C2043   1.475       .  S
Cd45         O52   2.438       .  S
Cd45         O51   2.448       .  S
Cd45         O50   2.452       .  S
Cd45         O46   2.469       .  S
Cd45         O49   2.501       .  S
Cd45         O47   2.431       .  S
C48          O52   1.262       .  A
C48        C1976   1.473       .  S
O53          C56   1.268       .  A
O53         Cd58   2.467       .  S
C54          O63   1.265       .  A
C54          O59   1.267       .  A
C54        C1915   1.466       .  S
O55          C61   1.271       .  A
O55         Cd58   2.505       .  S
C56          O64   1.266       .  A
C56        C2091   1.463       .  S
C57          O62   1.272       .  A
C57          O60   1.265       .  A
C57        C1944   1.474       .  S
Cd58         O65   2.405       .  S
Cd58         O64   2.426       .  S
Cd58         O63   2.449       .  S
Cd58         O59   2.452       .  S
Cd58         O62   2.516       .  S
Cd58         O60   2.402       .  S
C61          O65   1.261       .  A
C61        C1928   1.469       .  S
O66          C69   1.269       .  A
O66         Cd71   2.505       .  S
C67          O76   1.263       .  A
C67          O72   1.269       .  A
C67        C1867   1.476       .  S
O68          C74   1.268       .  A
O68         Cd71   2.509   1_554  S
C69          O77   1.266       .  A
C69        C1899   1.481       .  S
C70          O75   1.270       .  A
C70          O73   1.266       .  A
C70        C1947   1.476       .  S
Cd71         O78   2.444   1_556  S
Cd71         O77   2.472       .  S
Cd71         O76   2.457       .  S
Cd71         O72   2.500       .  S
Cd71         O75   2.503       .  S
Cd71         O73   2.434       .  S
C74          O78   1.263       .  A
C74        C1880   1.475       .  S
O79          C82   1.267       .  A
O79         Cd84   2.486       .  S
C80          O89   1.264       .  A
C80          O85   1.265       .  A
C80        C1800   1.472       .  S
O81          C87   1.261       .  A
O81         Cd84   2.437       .  S
C82          O90   1.266       .  A
C82        C1832   1.473       .  S
C83          O88   1.269       .  A
C83          O86   1.265       .  A
C83        C1848   1.473       .  S
Cd84         O91   2.518       .  S
Cd84         O90   2.456       .  S
Cd84         O89   2.487       .  S
Cd84         O85   2.467       .  S
Cd84         O88   2.503       .  S
Cd84         O86   2.423       .  S
C87          O91   1.268       .  A
C87        C1816   1.474       .  S
O92          C95   1.269       .  A
O92         Cd97   2.496       .  S
C93         O102   1.263       .  A
C93          O98   1.270       .  A
C93        C1768   1.473       .  S
O94         C100   1.268   1_554  A
O94         Cd97   2.514       .  S
C95         O103   1.265       .  A
C95        C1896   1.477       .  S
C96         O101   1.271       .  A
C96          O99   1.265       .  A
C96        C1851   1.472       .  S
Cd97        O104   2.451       .  S
Cd97        O103   2.468       .  S
Cd97        O102   2.429       .  S
Cd97         O98   2.505       .  S
Cd97        O101   2.503       .  S
Cd97         O99   2.418       .  S
C100        O104   1.262   1_556  A
C100       C1784   1.477       .  S
O105        C108   1.265       .  A
O105       Cd110   2.435       .  S
C106        O115   1.263       .  A
C106        O111   1.271       .  A
C106       C1720   1.472       .  S
O107        C113   1.269       .  A
O107       Cd110   2.485       .  S
C108        O116   1.271       .  A
C108       C1995   1.472       .  S
C109        O114   1.272       .  A
C109        O112   1.266       .  A
C109       C1755   1.472       .  S
Cd110       O117   2.439       .  S
Cd110       O116   2.492       .  S
Cd110       O115   2.432       .  S
Cd110       O111   2.500       .  S
Cd110       O114   2.495       .  S
Cd110       O112   2.398       .  S
C113        O117   1.264       .  A
C113       C1739   1.470       .  S
O118        C121   1.268       .  A
O118       Cd123   2.495       .  S
C119        O128   1.263       .  A
C119        O124   1.267       .  A
C119       C1672   1.472       .  S
O120        C126   1.267   1_565  A
O120       Cd123   2.497       .  S
C121        O129   1.263       .  A
C121       C1704   1.466       .  S
C122        O127   1.270       .  A
C122        O125   1.266       .  A
C122       C1752   1.471       .  S
Cd123       O130   2.439   1_565  S
Cd123       O129   2.423       .  S
Cd123       O128   2.456       .  S
Cd123       O124   2.487       .  S
Cd123       O127   2.486       .  S
Cd123       O125   2.431       .  S
C126        O130   1.262       .  A
C126       C1691   1.471       .  S
O131        C134   1.268       .  A
O131       Cd136   2.473       .  S
C132        O141   1.264       .  A
C132        O137   1.266       .  A
C132       C1627   1.469       .  S
O133        C139   1.269       .  A
O133       Cd136   2.518   1_565  S
C134        O142   1.267       .  A
C134       C1707   1.469       .  S
C135        O140   1.270       .  A
C135        O138   1.265       .  A
C135       C1656   1.476       .  S
Cd136       O143   2.426   1_545  S
Cd136       O142   2.432       .  S
Cd136       O141   2.449       .  S
Cd136       O137   2.479       .  S
Cd136       O140   2.502       .  S
Cd136       O138   2.434       .  S
C139        O143   1.260       .  A
C139       C1643   1.472       .  S
O144        C147   1.269       .  A
O144       Cd149   2.500       .  S
C145        O154   1.264       .  A
C145        O150   1.269       .  A
C145       C1592   1.477       .  S
O146        C152   1.269       .  A
O146       Cd149   2.523       .  S
C147        O155   1.263       .  A
C147       C1835   1.470       .  S
C148        O153   1.271       .  A
C148        O151   1.266       .  A
C148       C1659   1.474       .  S
Cd149       O156   2.421       .  S
Cd149       O155   2.427       .  S
Cd149       O154   2.449       .  S
Cd149       O150   2.509       .  S
Cd149       O153   2.490       .  S
Cd149       O151   2.435       .  S
C152        O156   1.263       .  A
C152       C1608   1.475       .  S
O157        C160   1.270       .  A
O157       Cd162   2.489       .  S
C158        O167   1.264       .  A
C158        O163   1.269       .  A
C158       C1560   1.475       .  S
O159        C165   1.269       .  A
O159       Cd162   2.493       .  S
C160        O168   1.263       .  A
C160       C1544   1.474       .  S
C161        O166   1.268       .  A
C161        O164   1.263       .  A
C161       C1912   1.466       .  S
Cd162       O169   2.429       .  S
Cd162       O168   2.448       .  S
Cd162       O167   2.435       .  S
Cd162       O163   2.523       .  S
Cd162       O166   2.486       .  S
Cd162       O164   2.416       .  S
C165        O169   1.265       .  A
C165       C1576   1.471       .  S
O170        C173   1.267       .  A
O170       Cd175   2.479       .  S
C171        O180   1.265       .  A
C171        O176   1.268       .  A
C171       C1528   1.470       .  S
O172        C178   1.269       .  A
O172       Cd175   2.508       .  S
C173        O181   1.262       .  A
C173       C1512   1.472       .  S
C174        O179   1.270       .  A
C174        O177   1.265   1_554  A
C174       C1624   1.469       .  S
Cd175       O182   2.406       .  S
Cd175       O181   2.464       .  S
Cd175       O180   2.436       .  S
Cd175       O176   2.486       .  S
Cd175       O179   2.475   1_556  S
Cd175       O177   2.432       .  S
C178        O182   1.262       .  A
C178       C1579   1.470       .  S
O183        C186   1.268       .  A
O183       Cd188   2.476       .  S
C184        O193   1.268       .  A
C184        O189   1.266       .  A
C184       C1483   1.471       .  S
O185        C191   1.263       .  A
O185       Cd188   2.433       .  S
C186        O194   1.265       .  A
C186       C1819   1.475       .  S
C187        O192   1.271       .  A
C187        O190   1.264       .  A
C187       C1464   1.477       .  S
Cd188       O195   2.514       .  S
Cd188       O194   2.468       .  S
Cd188       O193   2.480       .  S
Cd188       O189   2.456       .  S
Cd188       O192   2.518       .  S
Cd188       O190   2.439       .  S
C191        O195   1.271       .  A
C191       C1499   1.477       .  S
O196        C199   1.267       .  A
O196       Cd201   2.489       .  S
C197        O206   1.263       .  A
C197        O202   1.268       .  A
C197       C1435   1.473       .  S
O198        C204   1.266       .  A
O198       Cd201   2.460       .  S
C199        O207   1.264       .  A
C199       C1531   1.472       .  S
C200        O205   1.262       .  A
C200        O203   1.269       .  A
C200       C1496   1.476       .  S
Cd201       O208   2.498       .  S
Cd201       O207   2.456       .  S
Cd201       O206   2.447       .  S
Cd201       O202   2.499       .  S
Cd201       O205   2.442       .  S
Cd201       O203   2.519       .  S
C204        O208   1.270       .  A
C204       C1448   1.478   1_554  S
O209        C212   1.266       .  A
O209       Cd214   2.496       .  S
C210        O219   1.268       .  A
C210        O215   1.266       .  A
C210       C1563   1.475       .  S
O211        C217   1.268       .  A
O211       Cd214   2.503       .  S
C212        O220   1.262       .  A
C212       C1384   1.472       .  S
C213        O218   1.264       .  A
C213        O216   1.267       .  A
C213       C1403   1.477       .  S
Cd214       O221   2.471       .  S
Cd214       O220   2.450       .  S
Cd214       O219   2.503       .  S
Cd214       O215   2.439       .  S
Cd214       O218   2.462       .  S
Cd214       O216   2.508       .  S
C217        O221   1.265       .  A
C217       C1416   1.479       .  S
O222        C225   1.270       .  A
O222       Cd227   2.501       .  S
C223        O232   1.265       .  A
C223        O228   1.270       .  A
C223       C1371   1.477       .  S
O224        C230   1.272       .  A
O224       Cd227   2.536       .  S
C225        O233   1.265       .  A
C225       C1787   1.478       .  S
C226        O231   1.270       .  A
C226        O229   1.264       .  A
C226       C1352   1.474       .  S
Cd227       O234   2.404       .  S
Cd227       O233   2.457       .  S
Cd227       O232   2.449       .  S
Cd227       O228   2.499       .  S
Cd227       O231   2.497   1_545  S
Cd227       O229   2.437   1_545  S
C230        O234   1.263       .  A
C230       C1419   1.477       .  S
O235        C238   1.268       .  A
O235       Cd240   2.498       .  S
C236        O245   1.265       .  A
C236        O241   1.268       .  A
C236       C1320   1.469       .  S
O237        C243   1.270       .  A
O237       Cd240   2.517       .  S
C238        O246   1.264       .  A
C238       C1288   1.473       .  S
C239        O244   1.268       .  A
C239        O242   1.263       .  A
C239       C1304   1.469       .  S
Cd240       O247   2.414       .  S
Cd240       O246   2.446       .  S
Cd240       O245   2.438       .  S
Cd240       O241   2.483       .  S
Cd240       O244   2.496       .  S
Cd240       O242   2.425       .  S
C243        O247   1.264       .  A
C243       C1336   1.474       .  S
O248        C251   1.265       .  A
O248       Cd253   2.480       .  S
C249        O258   1.261       .  A
C249        O254   1.266       .  A
C249       C2027   1.469       .  S
O250        C256   1.260       .  A
O250       Cd253   2.443   1_545  S
C251        O259   1.265       .  A
C251       C1368   1.473       .  S
C252        O257   1.271       .  A
C252        O255   1.267       .  A
C252       C1339   1.478       .  S
Cd253       O260   2.523   1_565  S
Cd253       O259   2.478       .  S
Cd253       O258   2.448       .  S
Cd253       O254   2.498       .  S
Cd253       O257   2.504       .  S
Cd253       O255   2.436       .  S
C256        O260   1.268       .  A
C256       C1275   1.476       .  S
O261        C264   1.267       .  A
O261       Cd266   2.476       .  S
C262        O271   1.268       .  A
C262        O267   1.264       .  A
C262       C1323   1.470       .  S
O263        C269   1.270       .  A
O263       Cd266   2.491       .  S
C264        O272   1.264       .  A
C264       C1240   1.469       .  S
C265        O270   1.262       .  A
C265        O268   1.267       .  A
C265       C2059   1.469       .  S
Cd266       O273   2.410       .  S
Cd266       O272   2.446       .  S
Cd266       O271   2.494       .  S
Cd266       O267   2.437       .  S
Cd266       O270   2.422       .  S
Cd266       O268   2.501       .  S
C269        O273   1.265       .  A
C269       C1256   1.468       .  S
O274        C277   1.264       .  A
O274       Cd279   2.455       .  S
C275        O284   1.266       .  A
C275        O280   1.269       .  A
C275       C1227   1.474       .  S
O276        C282   1.270       .  A
O276       Cd279   2.498       .  S
C277        O285   1.268       .  A
C277       C1211   1.473       .  S
C278        O283   1.270       .  A
C278        O281   1.263       .  A
C278       C1675   1.473       .  S
Cd279       O286   2.408       .  S
Cd279       O285   2.483       .  S
Cd279       O284   2.460       .  S
Cd279       O280   2.477       .  S
Cd279       O283   2.504   1_455  S
Cd279       O281   2.428   1_455  S
C282        O286   1.265       .  A
C282       C1259   1.471       .  S
O287        C290   1.266       .  A
O287       Cd292   2.497       .  S
C288        O297   1.265       .  A
C288        O293   1.268       .  A
C288       C1480   1.470       .  S
O289        C295   1.271       .  A
O289       Cd292   2.547       .  S
C290        O298   1.264       .  A
C290       C1979   1.477       .  S
C291        O296   1.271       .  A
C291        O294   1.263       .  A
C291       C1176   1.474       .  S
Cd292       O299   2.409       .  S
Cd292       O298   2.480       .  S
Cd292       O297   2.445       .  S
Cd292       O293   2.477       .  S
Cd292       O296   2.513       .  S
Cd292       O294   2.427       .  S
C295        O299   1.261       .  A
C295       C1192   1.476       .  S
O300        C303   1.267       .  A
O300       Cd305   2.499       .  S
C301        O310   1.263       .  A
C301        O306   1.267       .  A
C301       C1224   1.473       .  S
O302        C308   1.269       .  A
O302       Cd305   2.498       .  S
C303        O311   1.262       .  A
C303       C1147   1.469       .  S
C304        O309   1.261       .  A
C304        O307   1.266       .  A
C304       C1163   1.471       .  S
Cd305       O312   2.425       .  S
Cd305       O311   2.442       .  S
Cd305       O310   2.454       .  S
Cd305       O306   2.502       .  S
Cd305       O309   2.452   1_655  S
Cd305       O307   2.494   1_655  S
C308        O312   1.266       .  A
C308       C1195   1.474       .  S
O313        C316   1.270       .  A
O313       Cd318   2.510       .  S
C314        O323   1.265       .  A
C314        O319   1.270       .  A
C314       C1112   1.472   1_565  S
O315        C321   1.271       .  A
O315       Cd318   2.474       .  S
C316        O324   1.264       .  A
C316       C1096   1.479       .  S
C317        O322   1.270       .  A
C317        O320   1.263       .  A
C317       C1515   1.470       .  S
Cd318       O325   2.409       .  S
Cd318       O324   2.456       .  S
Cd318       O323   2.460       .  S
Cd318       O319   2.477       .  S
Cd318       O322   2.508   1_565  S
Cd318       O320   2.412   1_565  S
C321        O325   1.266       .  A
C321       C1128   1.468       .  S
O326        C329   1.268       .  A
O326       Cd331   2.467       .  S
C327        O336   1.268       .  A
C327        O332   1.267       .  A
C327       C1080   1.469       .  S
O328        C334   1.271       .  A
O328       Cd331   2.493       .  S
C329        O337   1.264       .  A
C329       C1736   1.468       .  S
C330        O335   1.261       .  A
C330        O333   1.270       .  A
C330       C1291   1.469       .  S
Cd331       O338   2.422       .  S
Cd331       O337   2.437       .  S
Cd331       O336   2.464       .  S
Cd331       O332   2.435       .  S
Cd331       O335   2.420       .  S
Cd331       O333   2.498       .  S
C334        O338   1.264       .  A
C334       C1131   1.470       .  S
O339        C342   1.269       .  A
O339       Cd344   2.486       .  S
C340        O349   1.263       .  A
C340        O345   1.268       .  A
C340       C1048   1.475       .  S
O341        C347   1.266   1_545  A
O341       Cd344   2.495       .  S
C342        O350   1.264       .  A
C342       C1115   1.473       .  S
C343        O348   1.269       .  A
C343        O346   1.266       .  A
C343       C1067   1.471       .  S
Cd344       O351   2.457       .  S
Cd344       O350   2.447       .  S
Cd344       O349   2.456       .  S
Cd344       O345   2.507       .  S
Cd344       O348   2.486       .  S
Cd344       O346   2.424       .  S
C347        O351   1.263   1_565  A
C347       C2008   1.473       .  S
O352        C355   1.270       .  A
O352       Cd357   2.463       .  S
C353        O362   1.265       .  A
C353        O358   1.269       .  A
C353       C1400   1.474       .  S
O354        C360   1.263       .  A
O354       Cd357   2.431       .  S
C355        O363   1.266       .  A
C355       C1032   1.471       .  S
C356        O361   1.274       .  A
C356        O359   1.265       .  A
C356       C1064   1.472       .  S
Cd357       O364   2.518       .  S
Cd357       O363   2.456       .  S
Cd357       O362   2.449       .  S
Cd357       O358   2.482       .  S
Cd357       O361   2.508       .  S
Cd357       O359   2.396       .  S
C360        O364   1.272       .  A
C360       C1595   1.477       .  S
O365        C368   1.268       .  A
O365       Cd370   2.486       .  S
C366        O375   1.263       .  A
C366        O371   1.269       .  A
C366       C1931   1.469       .  S
O367        C373   1.267       .  A
O367       Cd370   2.495       .  S
C368        O376   1.264       .  A
C368       C1083   1.467       .  S
C369        O374   1.271       .  A
C369        O372   1.265       .  A
C369       C1019   1.473       .  S
Cd370       O377   2.439       .  S
Cd370       O376   2.430       .  S
Cd370       O375   2.430       .  S
Cd370       O371   2.495       .  S
Cd370       O374   2.508       .  S
Cd370       O372   2.416       .  S
C373        O377   1.262       .  A
C373       C1000   1.471       .  S
O378        C381   1.267       .  A
O378       Cd383   2.479       .  S
C379        O388   1.265   1_556  A
C379        O384   1.270       .  A
C379        C987   1.468   1_556  S
O380        C386   1.270       .  A
O380       Cd383   2.507       .  S
C381        O389   1.265       .  A
C381       C1355   1.472       .  S
C382        O387   1.271       .  A
C382        O385   1.263       .  A
C382        C971   1.466       .  S
Cd383       O390   2.409       .  S
Cd383       O389   2.450       .  S
Cd383       O388   2.444   1_556  S
Cd383       O384   2.461       .  S
Cd383       O387   2.490   1_556  S
Cd383       O385   2.401   1_556  S
C386        O390   1.264       .  A
C386       C1016   1.473       .  S
O391        C394   1.264       .  A
O391       Cd396   2.481       .  S
C392        O401   1.267       .  A
C392        O397   1.266       .  A
C392        C936   1.466       .  S
O393        C399   1.268       .  A
O393       Cd396   2.512       .  S
C394        O402   1.265       .  A
C394        C923   1.472       .  S
C395        O400   1.268       .  A
C395        O398   1.263       .  A
C395       C1803   1.472       .  S
Cd396       O403   2.435       .  S
Cd396       O402   2.464       .  S
Cd396       O401   2.461       .  S
Cd396       O397   2.443       .  S
Cd396       O400   2.513       .  S
Cd396       O398   2.416       .  S
C399        O403   1.263       .  A
C399        C952   1.474       .  S
O404        C407   1.268       .  A
O404       Cd409   2.479       .  S
C405        O414   1.264       .  A
C405        O410   1.270       .  A
C405       C1160   1.473       .  S
O406        C412   1.271   1_554  A
O406       Cd409   2.489       .  S
C407        O415   1.265       .  A
C407        C984   1.469       .  S
C408        O413   1.270       .  A
C408        O411   1.263       .  A
C408        C955   1.476       .  S
Cd409       O416   2.436       .  S
Cd409       O415   2.457       .  S
Cd409       O414   2.441       .  S
Cd409       O410   2.492       .  S
Cd409       O413   2.516       .  S
Cd409       O411   2.425       .  S
C412        O416   1.265   1_556  A
C412       C2107   1.473       .  S
O417        C420   1.267       .  A
O417       Cd422   2.499       .  S
C418        O427   1.264       .  A
C418        O423   1.268       .  A
C418       C1035   1.471       .  S
O419        C425   1.269       .  A
O419       Cd422   2.500       .  S
C420        O428   1.262       .  A
C420       C1179   1.472       .  S
C421        O426   1.265       .  A
C421        O424   1.262       .  A
C421        C888   1.470       .  S
Cd422       O429   2.418       .  S
Cd422       O428   2.457       .  S
Cd422       O427   2.446       .  S
Cd422       O423   2.487       .  S
Cd422       O426   2.488       .  S
Cd422       O424   2.451       .  S
C425        O429   1.266       .  A
C425        C904   1.473       .  S
O430        C433   1.266       .  A
O430       Cd435   2.452       .  S
C431        O440   1.265       .  A
C431        O436   1.266       .  A
C431       C1688   1.474       .  S
O432        C438   1.260       .  A
O432       Cd435   2.383   1_455  S
C433        O441   1.268       .  A
C433        C875   1.473       .  S
C434        O439   1.269       .  A
C434        O437   1.264       .  A
C434        C907   1.473       .  S
Cd435       O442   2.511   1_655  S
Cd435       O441   2.481       .  S
Cd435       O440   2.466       .  S
Cd435       O436   2.488       .  S
Cd435       O439   2.524       .  S
Cd435       O437   2.406       .  S
C438        O442   1.269       .  A
C438        C859   1.464       .  S
O443        C446   1.266       .  A
O443       Cd448   2.464       .  S
C444        O453   1.261       .  A
C444        O449   1.266       .  A
C444        C824   1.470       .  S
O445        C451   1.268       .  A
O445       Cd448   2.489       .  S
C446        O454   1.266       .  A
C446        C939   1.465       .  S
C447        O452   1.267       .  A
C447        O450   1.262       .  A
C447        C843   1.469       .  S
Cd448       O455   2.433       .  S
Cd448       O454   2.448       .  S
Cd448       O453   2.448       .  S
Cd448       O449   2.491       .  S
Cd448       O452   2.501       .  S
Cd448       O450   2.420       .  S
C451        O455   1.265       .  A
C451       C1243   1.470       .  S
O456        C459   1.267       .  A
O456       Cd461   2.502       .  S
C457        O466   1.263       .  A
C457        O462   1.268       .  A
C457       C1883   1.473       .  S
O458        C464   1.263   1_455  A
O458       Cd461   2.436       .  S
C459        O467   1.265       .  A
C459        C872   1.476       .  S
C460        O465   1.270       .  A
C460        O463   1.265       .  A
C460        C840   1.468       .  S
Cd461       O468   2.502       .  S
Cd461       O467   2.466       .  S
Cd461       O466   2.448       .  S
Cd461       O462   2.493       .  S
Cd461       O465   2.490       .  S
Cd461       O463   2.412       .  S
C464        O468   1.266   1_655  A
C464       C1432   1.471       .  S
O469        C472   1.269       .  A
O469       Cd474   2.483       .  S
C470        O479   1.266       .  A
C470        O475   1.269       .  A
C470        C792   1.471       .  S
O471        C477   1.272       .  A
O471       Cd474   2.502       .  S
C472        O480   1.264       .  A
C472       C2120   1.469       .  S
C473        O478   1.262       .  A
C473        O476   1.270       .  A
C473       C1144   1.471       .  S
Cd474       O481   2.404       .  S
Cd474       O480   2.431       .  S
Cd474       O479   2.442       .  S
Cd474       O475   2.474       .  S
Cd474       O478   2.429   1_556  S
Cd474       O476   2.500   1_556  S
C477        O481   1.265       .  A
C477        C808   1.471       .  S
O482        C485   1.270       .  A
O482       Cd487   2.483       .  S
C483        O492   1.268       .  A
C483        O488   1.263       .  A
C483       C1003   1.469       .  S
O484        C490   1.262       .  A
O484       Cd487   2.450       .  S
C485        O493   1.266       .  A
C485        C776   1.469       .  S
C486        O491   1.271       .  A
C486        O489   1.264       .  A
C486        C811   1.475       .  S
Cd487       O494   2.510       .  S
Cd487       O493   2.429       .  S
Cd487       O492   2.479       .  S
Cd487       O488   2.435       .  S
Cd487       O491   2.517       .  S
Cd487       O489   2.414       .  S
C490        O494   1.267       .  A
C490       C1547   1.474       .  S
O495        C498   1.269       .  A
O495       Cd500   2.488       .  S
C496        O505   1.265       .  A
C496        O501   1.269       .  A
C496        C795   1.471       .  S
O497        C503   1.272       .  A
O497       Cd500   2.502       .  S
C498        O506   1.263       .  A
C498       C1640   1.471       .  S
C499        O504   1.269       .  A
C499        O502   1.263       .  A
C499       C1099   1.478       .  S
Cd500       O507   2.433       .  S
Cd500       O506   2.439       .  S
Cd500       O505   2.438       .  S
Cd500       O501   2.493       .  S
Cd500       O504   2.509   1_554  S
Cd500       O502   2.455   1_554  S
C503        O507   1.266       .  A
C503        C760   1.477       .  S
O508        C511   1.268       .  A
O508       Cd513   2.467       .  S
C509        O518   1.264       .  A
C509        O514   1.268       .  A
C509       C1467   1.477       .  S
O510        C516   1.264       .  A
O510       Cd513   2.438       .  S
C511        O519   1.265       .  A
C511        C747   1.468       .  S
C512        O517   1.270       .  A
C512        O515   1.263       .  A
C512        C763   1.476       .  S
Cd513       O520   2.479       .  S
Cd513       O519   2.449       .  S
Cd513       O518   2.455       .  S
Cd513       O514   2.502       .  S
Cd513       O517   2.527       .  S
Cd513       O515   2.424       .  S
C516        O520   1.270       .  A
C516        C920   1.471       .  S
O521        C524   1.267       .  A
O521       Cd526   2.470       .  S
C522        O531   1.262       .  A
C522        O527   1.265       .  A
C522       C1307   1.466       .  S
O523        C529   1.263       .  A
O523       Cd526   2.418       .  S
C524        O532   1.266       .  A
C524        C744   1.468       .  S
C525        O530   1.268       .  A
C525        O528   1.262       .  A
C525        C731   1.470       .  S
Cd526       O533   2.495       .  S
Cd526       O532   2.446       .  S
Cd526       O531   2.449       .  S
Cd526       O527   2.466       .  S
Cd526       O530   2.504       .  S
Cd526       O528   2.406       .  S
C529        O533   1.269       .  A
C529       C1723   1.467       .  S
O534        C537   1.268       .  A
O534       Cd539   2.480       .  S
C535        O544   1.263       .  A
C535        O540   1.270       .  A
C535        C968   1.463       .  S
O536        C542   1.270       .  A
O536       Cd539   2.500   1_545  S
C537        O545   1.266       .  A
C537        C712   1.471       .  S
C538        O543   1.273       .  A
C538        O541   1.264       .  A
C538        C728   1.471       .  S
Cd539       O546   2.452       .  S
Cd539       O545   2.438       .  S
Cd539       O544   2.409       .  S
Cd539       O540   2.475       .  S
Cd539       O543   2.513       .  S
Cd539       O541   2.394       .  S
C542        O546   1.263   1_545  A
C542       C1771   1.474       .  S
O547        C550   1.265       .  A
O547       Cd552   2.480       .  S
C548        O557   1.264       .  A
C548        O553   1.267       .  A
C548        C683   1.470       .  S
O549        C555   1.271       .  A
O549       Cd552   2.493       .  S
C550        O558   1.262       .  A
C550       C1611   1.470       .  S
C551        O556   1.260       .  A
C551        O554   1.266       .  A
C551       C1387   1.471       .  S
Cd552       O559   2.389       .  S
Cd552       O558   2.471       .  S
Cd552       O557   2.456       .  S
Cd552       O553   2.483       .  S
Cd552       O556   2.435       .  S
Cd552       O554   2.514       .  S
C555        O559   1.264       .  A
C555        C699   1.467       .  S
O560        C563   1.267       .  A
O560       Cd565   2.465       .  S
C561        O570   1.265       .  A
C561        O566   1.269       .  A
C561        C715   1.464       .  S
O562        C568   1.270       .  A
O562       Cd565   2.508       .  S
C563        O571   1.262       .  A
C563        C856   1.466       .  S
C564        O569   1.268       .  A
C564        O567   1.261       .  A
C564       C1208   1.470       .  S
Cd565       O572   2.413       .  S
Cd565       O571   2.450       .  S
Cd565       O570   2.413       .  S
Cd565       O566   2.484       .  S
Cd565       O569   2.501   1_545  S
Cd565       O567   2.432   1_545  S
C568        O572   1.265       .  A
C568        C696   1.473       .  S
O573        C576   1.268       .  A
O573       Cd578   2.476       .  S
C574        O583   1.267       .  A
C574        O579   1.270       .  A
C574        C779   1.473       .  S
O575        C581   1.272       .  A
O575       Cd578   2.513       .  S
C576        O584   1.265       .  A
C576        C891   1.472       .  S
C577        O582   1.270       .  A
C577        O580   1.263       .  A
C577       C1963   1.476       .  S
Cd578       O585   2.402       .  S
Cd578       O584   2.454       .  S
Cd578       O583   2.445       .  S
Cd578       O579   2.487       .  S
Cd578       O582   2.523       .  S
Cd578       O580   2.426       .  S
C581        O585   1.263       .  A
C581        C664   1.473       .  S
O586        C589   1.268       .  A
O586       Cd591   2.522       .  S
C587        O596   1.265       .  A
C587        O592   1.269       .  A
C587        C651   1.478       .  S
O588        C594   1.268       .  A
O588       Cd591   2.494       .  S
C589        O597   1.263       .  A
C589       C1451   1.483       .  S
C590        O595   1.262       .  A
C590        O593   1.267   1_455  A
C590       C1864   1.476       .  S
Cd591       O598   2.457       .  S
Cd591       O597   2.479       .  S
Cd591       O596   2.471       .  S
Cd591       O592   2.497       .  S
Cd591       O595   2.441   1_655  S
Cd591       O593   2.521       .  S
C594        O598   1.266       .  A
C594        C667   1.476       .  S
O599        C602   1.268       .  A
O599       Cd604   2.491       .  S
C600        O609   1.265       .  A
C600        O605   1.268       .  A
C600       C1272   1.475       .  S
O601        C607   1.262   1_455  A
O601       Cd604   2.431       .  S
C602        O610   1.264       .  A
C602        C648   1.474       .  S
C603        O608   1.271       .  A
C603        O606   1.265       .  A
C603        C635   1.472       .  S
Cd604       O611   2.508       .  S
Cd604       O610   2.456       .  S
Cd604       O609   2.449       .  S
Cd604       O605   2.497       .  S
Cd604       O608   2.518       .  S
Cd604       O606   2.395       .  S
C607        O611   1.269   1_655  A
C607       C1051   1.472       .  S
O612        C615   1.269       .  A
O612       Cd617   2.492       .  S
C613        O622   1.264       .  A
C613        O618   1.267       .  A
C613       C2075   1.475       .  S
O614        C620   1.268       .  A
O614       Cd617   2.507       .  S
C615        O623   1.265       .  A
C615        C680   1.472       .  S
C616        O621   1.270       .  A
C616        O619   1.266       .  A
C616        C632   1.473       .  S
Cd617       O624   2.432       .  S
Cd617       O623   2.432       .  S
Cd617       O622   2.472       .  S
Cd617       O618   2.489       .  S
Cd617       O621   2.501       .  S
Cd617       O619   2.416       .  S
C620        O624   1.261       .  A
C620        C827   1.471       .  S
C625        S631   1.717       .  A
C625        C630   1.386       .  A
C625        C626   1.410       .  A
C626        C627   1.410       .  A
C626        H637   1.085       .  S
C627        C636   1.380       .  A
C627        C628   1.388       .  A
C628        S634   1.695       .  A
C628        C629   1.393       .  A
C629        C630   1.394       .  A
C629        H638   1.086       .  S
C630        C633   1.363       .  A
S631        C632   1.728       .  A
C632        C633   1.382       .  A
C633        H639   1.085       .  S
S634        C635   1.718       .  A
C635        C636   1.392       .  A
C636        H640   1.084       .  S
C641        S647   1.708       .  A
C641        C646   1.387       .  A
C641        C642   1.404       .  A
C642        C643   1.405       .  A
C642        H653   1.082       .  S
C643        C652   1.374   1_455  A
C643        C644   1.386       .  A
C644        S650   1.711   1_455  A
C644        C645   1.404       .  A
C645        C646   1.404       .  A
C645        H654   1.082       .  S
C646        C649   1.374       .  A
S647        C648   1.724       .  A
C648        C649   1.387       .  A
C649        H655   1.083       .  S
S650        C651   1.724       .  A
C651        C652   1.389       .  A
C652        H656   1.083       .  S
C657        S663   1.700       .  A
C657        C662   1.387       .  A
C657        C658   1.399       .  A
C658        C659   1.399       .  A
C658        H669   1.084       .  S
C659        C668   1.369       .  A
C659        C660   1.387       .  A
C660        S666   1.713       .  A
C660        C661   1.407       .  A
C661        C662   1.407       .  A
C661        H670   1.083       .  S
C662        C665   1.378       .  A
S663        C664   1.722       .  A
C664        C665   1.389       .  A
C665        H671   1.083       .  S
S666        C667   1.726       .  A
C667        C668   1.386       .  A
C668        H672   1.084       .  S
C673        S679   1.712       .  A
C673        C678   1.387       .  A
C673        C674   1.404       .  A
C674        C675   1.405       .  A
C674        H685   1.084       .  S
C675        C684   1.372       .  A
C675        C676   1.387       .  A
C676        S682   1.706       .  A
C676        C677   1.399       .  A
C677        C678   1.401       .  A
C677        H686   1.085       .  S
C678        C681   1.367       .  A
S679        C680   1.724       .  A
C680        C681   1.385       .  A
C681        H687   1.085       .  S
S682        C683   1.722       .  A
C683        C684   1.387       .  A
C684        H688   1.084       .  S
C689        S695   1.716       .  A
C689        C694   1.386       .  A
C689        C690   1.408       .  A
C690        C691   1.408       .  A
C690        H701   1.082       .  S
C691        C700   1.376       .  A
C691        C692   1.388       .  A
C692        S698   1.697       .  A
C692        C693   1.394       .  A
C693        C694   1.396       .  A
C693        H702   1.083       .  S
C694        C697   1.363       .  A
S695        C696   1.726       .  A
C696        C697   1.383       .  A
C697        H703   1.083       .  S
S698        C699   1.719       .  A
C699        C700   1.389       .  A
C700        H704   1.082       .  S
C705        S711   1.712       .  A
C705        C710   1.387       .  A
C705        C706   1.405       .  A
C706        C707   1.406       .  A
C706        H717   1.085       .  S
C707        C716   1.375       .  A
C707        C708   1.388       .  A
C708        S714   1.700   1_565  A
C708        C709   1.397       .  A
C709        C710   1.398       .  A
C709        H718   1.085       .  S
C710        C713   1.367       .  A
S711        C712   1.724       .  A
C712        C713   1.384       .  A
C713        H719   1.085       .  S
S714        C715   1.718       .  A
C715        C716   1.387   1_545  A
C716        H720   1.084       .  S
C721        S727   1.697       .  A
C721        C726   1.388       .  A
C721        C722   1.395       .  A
C722        C723   1.396       .  A
C722        H733   1.083       .  S
C723        C732   1.362       .  A
C723        C724   1.386       .  A
C724        S730   1.715       .  A
C724        C725   1.407       .  A
C725        C726   1.408       .  A
C725        H734   1.082       .  S
C726        C729   1.378       .  A
S727        C728   1.721       .  A
C728        C729   1.390       .  A
C729        H735   1.082       .  S
S730        C731   1.725       .  A
C731        C732   1.383       .  A
C732        H736   1.084       .  S
C737        S743   1.710       .  A
C737        C742   1.387       .  A
C737        C738   1.402       .  A
C738        C739   1.404       .  A
C738        H749   1.085       .  S
C739        C748   1.371       .  A
C739        C740   1.387       .  A
C740        S746   1.706       .  A
C740        C741   1.399       .  A
C741        C742   1.400       .  A
C741        H750   1.085       .  S
C742        C745   1.368       .  A
S743        C744   1.722       .  A
C744        C745   1.384       .  A
C745        H751   1.085       .  S
S746        C747   1.720       .  A
C747        C748   1.387       .  A
C748        H752   1.085       .  S
C753        S759   1.715       .  A
C753        C758   1.386       .  A
C753        C754   1.408       .  A
C754        C755   1.408       .  A
C754        H765   1.084       .  S
C755        C764   1.380       .  A
C755        C756   1.387       .  A
C756        S762   1.701       .  A
C756        C757   1.398       .  A
C757        C758   1.399       .  A
C757        H766   1.085       .  S
C758        C761   1.368       .  A
S759        C760   1.726       .  A
C760        C761   1.386       .  A
C761        H767   1.085       .  S
S762        C763   1.722       .  A
C763        C764   1.391       .  A
C764        H768   1.084       .  S
C769        S775   1.704       .  A
C769        C774   1.388       .  A
C769        C770   1.400       .  A
C770        C771   1.401       .  A
C770        H781   1.085       .  S
C771        C780   1.369       .  A
C771        C772   1.387       .  A
C772        S778   1.712       .  A
C772        C773   1.405       .  A
C773        C774   1.405       .  A
C773        H782   1.085       .  S
C774        C777   1.374       .  A
S775        C776   1.721       .  A
C776        C777   1.387       .  A
C777        H783   1.084       .  S
S778        C779   1.724       .  A
C779        C780   1.386       .  A
C780        H784   1.085       .  S
C785        S791   1.710       .  A
C785        C790   1.387       .  A
C785        C786   1.404       .  A
C786        C787   1.405       .  A
C786        H797   1.083       .  S
C787        C796   1.374   1_556  A
C787        C788   1.387   1_556  A
C788        S794   1.704       .  A
C788        C789   1.400   1_554  A
C789        C790   1.400       .  A
C789        H798   1.084   1_556  S
C790        C793   1.369       .  A
S791        C792   1.723       .  A
C792        C793   1.386       .  A
C793        H799   1.084       .  S
S794        C795   1.722       .  A
C795        C796   1.387       .  A
C796        H800   1.083       .  S
C801        S807   1.699       .  A
C801        C806   1.387       .  A
C801        C802   1.396       .  A
C802        C803   1.398       .  A
C802        H813   1.082       .  S
C803        C812   1.365       .  A
C803        C804   1.386       .  A
C804        S810   1.716       .  A
C804        C805   1.408       .  A
C805        C806   1.408       .  A
C805        H814   1.081       .  S
C806        C809   1.377       .  A
S807        C808   1.721       .  A
C808        C809   1.389       .  A
C809        H815   1.082       .  S
S810        C811   1.726       .  A
C811        C812   1.385       .  A
C812        H816   1.083       .  S
C817        S823   1.705       .  A
C817        C822   1.387       .  A
C817        C818   1.402       .  A
C818        C819   1.402       .  A
C818        H829   1.085       .  S
C819        C828   1.373       .  A
C819        C820   1.388       .  A
C820        S826   1.703       .  A
C820        C821   1.401       .  A
C821        C822   1.401       .  A
C821        H830   1.086       .  S
C822        C825   1.371       .  A
S823        C824   1.723       .  A
C824        C825   1.385       .  A
C825        H831   1.085       .  S
S826        C827   1.723       .  A
C827        C828   1.386       .  A
C828        H832   1.084       .  S
C833        S839   1.699       .  A
C833        C838   1.388       .  A
C833        C834   1.396       .  A
C834        C835   1.397       .  A
C834        H845   1.085       .  S
C835        C844   1.364       .  A
C835        C836   1.387       .  A
C836        S842   1.713       .  A
C836        C837   1.405       .  A
C837        C838   1.406       .  A
C837        H846   1.084       .  S
C838        C841   1.375       .  A
S839        C840   1.720       .  A
C840        C841   1.388       .  A
C841        H847   1.083       .  S
S842        C843   1.724       .  A
C843        C844   1.384       .  A
C844        H848   1.085       .  S
C849        S855   1.707       .  A
C849        C854   1.387       .  A
C849        C850   1.404       .  A
C850        C851   1.404       .  A
C850        H861   1.084       .  S
C851        C860   1.374       .  A
C851        C852   1.388       .  A
C852        S858   1.695       .  A
C852        C853   1.395       .  A
C853        C854   1.395       .  A
C853        H862   1.084       .  S
C854        C857   1.366       .  A
S855        C856   1.725       .  A
C856        C857   1.381       .  A
C857        H863   1.084       .  S
S858        C859   1.720       .  A
C859        C860   1.386       .  A
C860        H864   1.084       .  S
C865        S871   1.707       .  A
C865        C870   1.387       .  A
C865        C866   1.401       .  A
C866        C867   1.401       .  A
C866        H877   1.085       .  S
C867        C876   1.370       .  A
C867        C868   1.387       .  A
C868        S874   1.713   1_455  A
C868        C869   1.405       .  A
C869        C870   1.406       .  A
C869        H878   1.085       .  S
C870        C873   1.376       .  A
S871        C872   1.723       .  A
C872        C873   1.389       .  A
C873        H879   1.084       .  S
S874        C875   1.725       .  A
C875        C876   1.385   1_655  A
C876        H880   1.085       .  S
C881        S887   1.710       .  A
C881        C886   1.387       .  A
C881        C882   1.402       .  A
C882        C883   1.404       .  A
C882        H893   1.086       .  S
C883        C892   1.371       .  A
C883        C884   1.387       .  A
C884        S890   1.708       .  A
C884        C885   1.400       .  A
C885        C886   1.402       .  A
C885        H894   1.086       .  S
C886        C889   1.368       .  A
S887        C888   1.722       .  A
C888        C889   1.386       .  A
C889        H895   1.085       .  S
S890        C891   1.721       .  A
C891        C892   1.388       .  A
C892        H896   1.085       .  S
C897        S903   1.718       .  A
C897        C902   1.386       .  A
C897        C898   1.411       .  A
C898        C899   1.411       .  A
C898        H909   1.085       .  S
C899        C908   1.381       .  A
C899        C900   1.388       .  A
C900        S906   1.695       .  A
C900        C901   1.393       .  A
C901        C902   1.394       .  A
C901        H910   1.086       .  S
C902        C905   1.363       .  A
S903        C904   1.728       .  A
C904        C905   1.381       .  A
C905        H911   1.085       .  S
S906        C907   1.718       .  A
C907        C908   1.393       .  A
C908        H912   1.084       .  S
C913        S919   1.708       .  A
C913        C918   1.387       .  A
C913        C914   1.400       .  A
C914        C915   1.401       .  A
C914        H925   1.082       .  S
C915        C924   1.368       .  A
C915        C916   1.387       .  A
C916        S922   1.711       .  A
C916        C917   1.403       .  A
C917        C918   1.405       .  A
C917        H926   1.083       .  S
C918        C921   1.371       .  A
S919        C920   1.720       .  A
C920        C921   1.389       .  A
C921        H927   1.083       .  S
S922        C923   1.725       .  A
C923        C924   1.385       .  A
C924        H928   1.083       .  S
C929        S935   1.707       .  A
C929        C934   1.387       .  A
C929        C930   1.399       .  A
C930        C931   1.401       .  A
C930        H941   1.085       .  S
C931        C940   1.368       .  A
C931        C932   1.388       .  A
C932        S938   1.707       .  A
C932        C933   1.400       .  A
C933        C934   1.402       .  A
C933        H942   1.085       .  S
C934        C937   1.368       .  A
S935        C936   1.721       .  A
C936        C937   1.385       .  A
C937        H943   1.084       .  S
S938        C939   1.721       .  A
C939        C940   1.384       .  A
C940        H944   1.084       .  S
C945        S951   1.702       .  A
C945        C950   1.387       .  A
C945        C946   1.398       .  A
C946        C947   1.399       .  A
C946        H957   1.082       .  S
C947        C956   1.367       .  A
C947        C948   1.386       .  A
C948        S954   1.716       .  A
C948        C949   1.408       .  A
C949        C950   1.408       .  A
C949        H958   1.082       .  S
C950        C953   1.378       .  A
S951        C952   1.721       .  A
C952        C953   1.390       .  A
C953        H959   1.082       .  S
S954        C955   1.726       .  A
C955        C956   1.386       .  A
C956        H960   1.083       .  S
C961        S967   1.702       .  A
C961        C966   1.388       .  A
C961        C962   1.401       .  A
C962        C963   1.400       .  A
C962        H973   1.085       .  S
C963        C972   1.372       .  A
C963        C964   1.388       .  A
C964        S970   1.699       .  A
C964        C965   1.399       .  A
C965        C966   1.398       .  A
C965        H974   1.085       .  S
C966        C969   1.369       .  A
S967        C968   1.723       .  A
C968        C969   1.382       .  A
C969        H975   1.085       .  S
S970        C971   1.722       .  A
C971        C972   1.384       .  A
C972        H976   1.084       .  S
C977        S983   1.707   1_554  A
C977        C982   1.387       .  A
C977        C978   1.400   1_554  A
C978        C979   1.401       .  A
C978        H989   1.083       .  S
C979        C988   1.369       .  A
C979        C980   1.387   1_556  A
C980        S986   1.708       .  A
C980        C981   1.403       .  A
C981        C982   1.404       .  A
C981        H990   1.083       .  S
C982        C985   1.372       .  A
S983        C984   1.722   1_556  A
C984        C985   1.386       .  A
C985        H991   1.083       .  S
S986        C987   1.724       .  A
C987        C988   1.383   1_554  A
C988        H992   1.083       .  S
C993        S999   1.710       .  A
C993        C998   1.387       .  A
C993        C994   1.401       .  A
C994        C995   1.403       .  A
C994       H1005   1.084       .  S
C995       C1004   1.368       .  A
C995        C996   1.387       .  A
C996       S1002   1.709       .  A
C996        C997   1.400       .  A
C997        C998   1.403       .  A
C997       H1006   1.084       .  S
C998       C1001   1.368       .  A
S999       C1000   1.722       .  A
C1000      C1001   1.387       .  A
C1001      H1007   1.084       .  S
S1002      C1003   1.721       .  A
C1003      C1004   1.386       .  A
C1004      H1008   1.084       .  S
C1009      S1015   1.717       .  A
C1009      C1014   1.386       .  A
C1009      C1010   1.408       .  A
C1010      C1011   1.409       .  A
C1010      H1021   1.083       .  S
C1011      C1020   1.378       .  A
C1011      C1012   1.387       .  A
C1012      S1018   1.699       .  A
C1012      C1013   1.396       .  A
C1013      C1014   1.397       .  A
C1013      H1022   1.084       .  S
C1014      C1017   1.364       .  A
S1015      C1016   1.726       .  A
C1016      C1017   1.384       .  A
C1017      H1023   1.084       .  S
S1018      C1019   1.720       .  A
C1019      C1020   1.390       .  A
C1020      H1024   1.083       .  S
C1025      S1031   1.709       .  A
C1025      C1030   1.387       .  A
C1025      C1026   1.402       .  A
C1026      C1027   1.403       .  A
C1026      H1037   1.085       .  S
C1027      C1036   1.369       .  A
C1027      C1028   1.387       .  A
C1028      S1034   1.709       .  A
C1028      C1029   1.401       .  A
C1029      C1030   1.402       .  A
C1029      H1038   1.084       .  S
C1030      C1033   1.370       .  A
S1031      C1032   1.725       .  A
C1032      C1033   1.385       .  A
C1033      H1039   1.084       .  S
S1034      C1035   1.722       .  A
C1035      C1036   1.387       .  A
C1036      H1040   1.084       .  S
C1041      S1047   1.707       .  A
C1041      C1046   1.387       .  A
C1041      C1042   1.404       .  A
C1042      C1043   1.403       .  A
C1042      H1053   1.083       .  S
C1043      C1052   1.375       .  A
C1043      C1044   1.387       .  A
C1044      S1050   1.704       .  A
C1044      C1045   1.402       .  A
C1045      C1046   1.402       .  A
C1045      H1054   1.083       .  S
C1046      C1049   1.374       .  A
S1047      C1048   1.725       .  A
C1048      C1049   1.387       .  A
C1049      H1055   1.083       .  S
S1050      C1051   1.724       .  A
C1051      C1052   1.387       .  A
C1052      H1056   1.083       .  S
C1057      S1063   1.699       .  A
C1057      C1062   1.387       .  A
C1057      C1058   1.397       .  A
C1058      C1059   1.398       .  A
C1058      H1069   1.083       .  S
C1059      C1068   1.366       .  A
C1059      C1060   1.386       .  A
C1060      S1066   1.713       .  A
C1060      C1061   1.406       .  A
C1061      C1062   1.407       .  A
C1061      H1070   1.082       .  S
C1062      C1065   1.377       .  A
S1063      C1064   1.722       .  A
C1064      C1065   1.389       .  A
C1065      H1071   1.082       .  S
S1066      C1067   1.725       .  A
C1067      C1068   1.384       .  A
C1068      H1072   1.083       .  S
C1073      S1079   1.710       .  A
C1073      C1078   1.387       .  A
C1073      C1074   1.404       .  A
C1074      C1075   1.405       .  A
C1074      H1085   1.085       .  S
C1075      C1084   1.373       .  A
C1075      C1076   1.388       .  A
C1076      S1082   1.702       .  A
C1076      C1077   1.397       .  A
C1077      C1078   1.398       .  A
C1077      H1086   1.086       .  S
C1078      C1081   1.366       .  A
S1079      C1080   1.724       .  A
C1080      C1081   1.383       .  A
C1081      H1087   1.085       .  S
S1082      C1083   1.719       .  A
C1083      C1084   1.387       .  A
C1084      H1088   1.085       .  S
C1089      S1095   1.713       .  A
C1089      C1094   1.386       .  A
C1089      C1090   1.404       .  A
C1090      C1091   1.405       .  A
C1090      H1101   1.086       .  S
C1091      C1100   1.372       .  A
C1091      C1092   1.386       .  A
C1092      S1098   1.713       .  A
C1092      C1093   1.404       .  A
C1093      C1094   1.405       .  A
C1093      H1102   1.086       .  S
C1094      C1097   1.373       .  A
S1095      C1096   1.724       .  A
C1096      C1097   1.390       .  A
C1097      H1103   1.085       .  S
S1098      C1099   1.723       .  A
C1099      C1100   1.389       .  A
C1100      H1104   1.085       .  S
C1105      S1111   1.710       .  A
C1105      C1110   1.387       .  A
C1105      C1106   1.404       .  A
C1106      C1107   1.405       .  A
C1106      H1117   1.084       .  S
C1107      C1116   1.371       .  A
C1107      C1108   1.387       .  A
C1108      S1114   1.709       .  A
C1108      C1109   1.401       .  A
C1109      C1110   1.402       .  A
C1109      H1118   1.084       .  S
C1110      C1113   1.371       .  A
S1111      C1112   1.724       .  A
C1112      C1113   1.385       .  A
C1113      H1119   1.083       .  S
S1114      C1115   1.721       .  A
C1115      C1116   1.389       .  A
C1116      H1120   1.084       .  S
C1121      S1127   1.711       .  A
C1121      C1126   1.387       .  A
C1121      C1122   1.403       .  A
C1122      C1123   1.404       .  A
C1122      H1133   1.084       .  S
C1123      C1132   1.373       .  A
C1123      C1124   1.388       .  A
C1124      S1130   1.702       .  A
C1124      C1125   1.398       .  A
C1125      C1126   1.399       .  A
C1125      H1134   1.085       .  S
C1126      C1129   1.365       .  A
S1127      C1128   1.723       .  A
C1128      C1129   1.385       .  A
C1129      H1135   1.085       .  S
S1130      C1131   1.722       .  A
C1131      C1132   1.387       .  A
C1132      H1136   1.083       .  S
C1137      S1143   1.704       .  A
C1137      C1142   1.388       .  A
C1137      C1138   1.402       .  A
C1138      C1139   1.402       .  A
C1138      H1149   1.084       .  S
C1139      C1148   1.373       .  A
C1139      C1140   1.388       .  A
C1140      S1146   1.704       .  A
C1140      C1141   1.402       .  A
C1141      C1142   1.401       .  A
C1141      H1150   1.084       .  S
C1142      C1145   1.373       .  A
S1143      C1144   1.724       .  A
C1144      C1145   1.385       .  A
C1145      H1151   1.084       .  S
S1146      C1147   1.723       .  A
C1147      C1148   1.385       .  A
C1148      H1152   1.084       .  S
C1153      S1159   1.705       .  A
C1153      C1158   1.387       .  A
C1153      C1154   1.402       .  A
C1154      C1155   1.402       .  A
C1154      H1165   1.084       .  S
C1155      C1164   1.372       .  A
C1155      C1156   1.387       .  A
C1156      S1162   1.705       .  A
C1156      C1157   1.402       .  A
C1157      C1158   1.402       .  A
C1157      H1166   1.084       .  S
C1158      C1161   1.373       .  A
S1159      C1160   1.724       .  A
C1160      C1161   1.386       .  A
C1161      H1167   1.084       .  S
S1162      C1163   1.723       .  A
C1163      C1164   1.386       .  A
C1164      H1168   1.084       .  S
C1169      S1175   1.704       .  A
C1169      C1174   1.387       .  A
C1169      C1170   1.402       .  A
C1170      C1171   1.401       .  A
C1170      H1181   1.086       .  S
C1171      C1180   1.373       .  A
C1171      C1172   1.387       .  A
C1172      S1178   1.707       .  A
C1172      C1173   1.404       .  A
C1173      C1174   1.404       .  A
C1173      H1182   1.085       .  S
C1174      C1177   1.376       .  A
S1175      C1176   1.724       .  A
C1176      C1177   1.387       .  A
C1177      H1183   1.084       .  S
S1178      C1179   1.724       .  A
C1179      C1180   1.385       .  A
C1180      H1184   1.085       .  S
C1185      S1191   1.697       .  A
C1185      C1190   1.387       .  A
C1185      C1186   1.396       .  A
C1186      C1187   1.396       .  A
C1186      H1197   1.083       .  S
C1187      C1196   1.366       .  A
C1187      C1188   1.386       .  A
C1188      S1194   1.716       .  A
C1188      C1189   1.410       .  A
C1189      C1190   1.410       .  A
C1189      H1198   1.082       .  S
C1190      C1193   1.381       .  A
S1191      C1192   1.721       .  A
C1192      C1193   1.391       .  A
C1193      H1199   1.082       .  S
S1194      C1195   1.727       .  A
C1195      C1196   1.384       .  A
C1196      H1200   1.083       .  S
C1201      S1207   1.712       .  A
C1201      C1206   1.387       .  A
C1201      C1202   1.403       .  A
C1202      C1203   1.405       .  A
C1202      H1213   1.083       .  S
C1203      C1212   1.371       .  A
C1203      C1204   1.387       .  A
C1204      S1210   1.708       .  A
C1204      C1205   1.400       .  A
C1205      C1206   1.402       .  A
C1205      H1214   1.083       .  S
C1206      C1209   1.368       .  A
S1207      C1208   1.722       .  A
C1208      C1209   1.386       .  A
C1209      H1215   1.084       .  S
S1210      C1211   1.721       .  A
C1211      C1212   1.389       .  A
C1212      H1216   1.083       .  S
C1217      S1223   1.706       .  A
C1217      C1222   1.387       .  A
C1217      C1218   1.402       .  A
C1218      C1219   1.403       .  A
C1218      H1229   1.083       .  S
C1219      C1228   1.372       .  A
C1219      C1220   1.387       .  A
C1220      S1226   1.710   1_655  A
C1220      C1221   1.404       .  A
C1221      C1222   1.405       .  A
C1221      H1230   1.082       .  S
C1222      C1225   1.375       .  A
S1223      C1224   1.723       .  A
C1224      C1225   1.388       .  A
C1225      H1231   1.083       .  S
S1226      C1227   1.723       .  A
C1227      C1228   1.388   1_455  A
C1228      H1232   1.083       .  S
C1233      S1239   1.708       .  A
C1233      C1238   1.387       .  A
C1233      C1234   1.399       .  A
C1234      C1235   1.401       .  A
C1234      H1245   1.086       .  S
C1235      C1244   1.367       .  A
C1235      C1236   1.387       .  A
C1236      S1242   1.711       .  A
C1236      C1237   1.402       .  A
C1237      C1238   1.404       .  A
C1237      H1246   1.086       .  S
C1238      C1241   1.369       .  A
S1239      C1240   1.721       .  A
C1240      C1241   1.387       .  A
C1241      H1247   1.085       .  S
S1242      C1243   1.723       .  A
C1243      C1244   1.385       .  A
C1244      H1248   1.085       .  S
C1249      S1255   1.698       .  A
C1249      C1254   1.388       .  A
C1249      C1250   1.395       .  A
C1250      C1251   1.396       .  A
C1250      H1261   1.085       .  S
C1251      C1260   1.363       .  A
C1251      C1252   1.386       .  A
C1252      S1258   1.715       .  A
C1252      C1253   1.407       .  A
C1253      C1254   1.408       .  A
C1253      H1262   1.083       .  S
C1254      C1257   1.376       .  A
S1255      C1256   1.719       .  A
C1256      C1257   1.389       .  A
C1257      H1263   1.083       .  S
S1258      C1259   1.726       .  A
C1259      C1260   1.383       .  A
C1260      H1264   1.084       .  S
C1265      S1271   1.712       .  A
C1265      C1270   1.387       .  A
C1265      C1266   1.402       .  A
C1266      C1267   1.405       .  A
C1266      H1277   1.086       .  S
C1267      C1276   1.370       .  A
C1267      C1268   1.386       .  A
C1268      S1274   1.713       .  A
C1268      C1269   1.402       .  A
C1269      C1270   1.404       .  A
C1269      H1278   1.086       .  S
C1270      C1273   1.370       .  A
S1271      C1272   1.724       .  A
C1272      C1273   1.387       .  A
C1273      H1279   1.085       .  S
S1274      C1275   1.723       .  A
C1275      C1276   1.389       .  A
C1276      H1280   1.085       .  S
C1281      S1287   1.704       .  A
C1281      C1286   1.387       .  A
C1281      C1282   1.401       .  A
C1282      C1283   1.401       .  A
C1282      H1293   1.084       .  S
C1283      C1292   1.372       .  A
C1283      C1284   1.387       .  A
C1284      S1290   1.705       .  A
C1284      C1285   1.403       .  A
C1285      C1286   1.403       .  A
C1285      H1294   1.084       .  S
C1286      C1289   1.374       .  A
S1287      C1288   1.723       .  A
C1288      C1289   1.388       .  A
C1289      H1295   1.084       .  S
S1290      C1291   1.724       .  A
C1291      C1292   1.384       .  A
C1292      H1296   1.084       .  S
C1297      S1303   1.712       .  A
C1297      C1302   1.387       .  A
C1297      C1298   1.402       .  A
C1298      C1299   1.404       .  A
C1298      H1309   1.082       .  S
C1299      C1308   1.369       .  A
C1299      C1300   1.387       .  A
C1300      S1306   1.705       .  A
C1300      C1301   1.398       .  A
C1301      C1302   1.400       .  A
C1301      H1310   1.083       .  S
C1302      C1305   1.365       .  A
S1303      C1304   1.722       .  A
C1304      C1305   1.385       .  A
C1305      H1311   1.083       .  S
S1306      C1307   1.719       .  A
C1307      C1308   1.387       .  A
C1308      H1312   1.083       .  S
C1313      S1319   1.711       .  A
C1313      C1318   1.387       .  A
C1313      C1314   1.404       .  A
C1314      C1315   1.405       .  A
C1314      H1325   1.083       .  S
C1315      C1324   1.374       .  A
C1315      C1316   1.387       .  A
C1316      S1322   1.703       .  A
C1316      C1317   1.399       .  A
C1317      C1318   1.399       .  A
C1317      H1326   1.083       .  S
C1318      C1321   1.367       .  A
S1319      C1320   1.724       .  A
C1320      C1321   1.384       .  A
C1321      H1327   1.083       .  S
S1322      C1323   1.721       .  A
C1323      C1324   1.388       .  A
C1324      H1328   1.083       .  S
C1329      S1335   1.699       .  A
C1329      C1334   1.387       .  A
C1329      C1330   1.397       .  A
C1330      C1331   1.398       .  A
C1330      H1341   1.083       .  S
C1331      C1340   1.368       .  A
C1331      C1332   1.386       .  A
C1332      S1338   1.716       .  A
C1332      C1333   1.410       .  A
C1333      C1334   1.409       .  A
C1333      H1342   1.082       .  S
C1334      C1337   1.380       .  A
S1335      C1336   1.720       .  A
C1336      C1337   1.392       .  A
C1337      H1343   1.083       .  S
S1338      C1339   1.727       .  A
C1339      C1340   1.385       .  A
C1340      H1344   1.083       .  S
C1345      S1351   1.711       .  A
C1345      C1350   1.387       .  A
C1345      C1346   1.402       .  A
C1346      C1347   1.403       .  A
C1346      H1357   1.085       .  S
C1347      C1356   1.370       .  A
C1347      C1348   1.387       .  A
C1348      S1354   1.710       .  A
C1348      C1349   1.401       .  A
C1349      C1350   1.403       .  A
C1349      H1358   1.086       .  S
C1350      C1353   1.369       .  A
S1351      C1352   1.722       .  A
C1352      C1353   1.388       .  A
C1353      H1359   1.085       .  S
S1354      C1355   1.722       .  A
C1355      C1356   1.387       .  A
C1356      H1360   1.084       .  S
C1361      S1367   1.710       .  A
C1361      C1366   1.387   1_545  A
C1361      C1362   1.404       .  A
C1362      C1363   1.405       .  A
C1362      H1373   1.084       .  S
C1363      C1372   1.376       .  A
C1363      C1364   1.387   1_545  A
C1364      S1370   1.706       .  A
C1364      C1365   1.403       .  A
C1365      C1366   1.403       .  A
C1365      H1374   1.084       .  S
C1366      C1369   1.373       .  A
S1367      C1368   1.723   1_545  A
C1368      C1369   1.386       .  A
C1369      H1375   1.084       .  S
S1370      C1371   1.724   1_565  A
C1371      C1372   1.388       .  A
C1372      H1376   1.083       .  S
C1377      S1383   1.710       .  A
C1377      C1382   1.387       .  A
C1377      C1378   1.400       .  A
C1378      C1379   1.402       .  A
C1378      H1389   1.086       .  S
C1379      C1388   1.367       .  A
C1379      C1380   1.387       .  A
C1380      S1386   1.712       .  A
C1380      C1381   1.402       .  A
C1381      C1382   1.404       .  A
C1381      H1390   1.085       .  S
C1382      C1385   1.369       .  A
S1383      C1384   1.722       .  A
C1384      C1385   1.387       .  A
C1385      H1391   1.085       .  S
S1386      C1387   1.722       .  A
C1387      C1388   1.386       .  A
C1388      H1392   1.085       .  S
C1393      S1399   1.710       .  A
C1393      C1398   1.387       .  A
C1393      C1394   1.402       .  A
C1394      C1395   1.403       .  A
C1394      H1405   1.083       .  S
C1395      C1404   1.371       .  A
C1395      C1396   1.386       .  A
C1396      S1402   1.713       .  A
C1396      C1397   1.404       .  A
C1397      C1398   1.406       .  A
C1397      H1406   1.083       .  S
C1398      C1401   1.372       .  A
S1399      C1400   1.722       .  A
C1400      C1401   1.389       .  A
C1401      H1407   1.083       .  S
S1402      C1403   1.725       .  A
C1403      C1404   1.388       .  A
C1404      H1408   1.083       .  S
C1409      S1415   1.715       .  A
C1409      C1414   1.386       .  A
C1409      C1410   1.410       .  A
C1410      C1411   1.409       .  A
C1410      H1421   1.083       .  S
C1411      C1420   1.382       .  A
C1411      C1412   1.387       .  A
C1412      S1418   1.699       .  A
C1412      C1413   1.399       .  A
C1413      C1414   1.399       .  A
C1413      H1422   1.084       .  S
C1414      C1417   1.371       .  A
S1415      C1416   1.727       .  A
C1416      C1417   1.386       .  A
C1417      H1423   1.084       .  S
S1418      C1419   1.722       .  A
C1419      C1420   1.392       .  A
C1420      H1424   1.083       .  S
C1425      S1431   1.713       .  A
C1425      C1430   1.387       .  A
C1425      C1426   1.403       .  A
C1426      C1427   1.405       .  A
C1426      H1437   1.084       .  S
C1427      C1436   1.370       .  A
C1427      C1428   1.387       .  A
C1428      S1434   1.710       .  A
C1428      C1429   1.400       .  A
C1429      C1430   1.402       .  A
C1429      H1438   1.083       .  S
C1430      C1433   1.367       .  A
S1431      C1432   1.724       .  A
C1432      C1433   1.385       .  A
C1433      H1439   1.083       .  S
S1434      C1435   1.722       .  A
C1435      C1436   1.388       .  A
C1436      H1440   1.083       .  S
C1441      S1447   1.714       .  A
C1441      C1446   1.387       .  A
C1441      C1442   1.404       .  A
C1442      C1443   1.406       .  A
C1442      H1453   1.086       .  S
C1443      C1452   1.374       .  A
C1443      C1444   1.386       .  A
C1444      S1450   1.714       .  A
C1444      C1445   1.405       .  A
C1445      C1446   1.406       .  A
C1445      H1454   1.086       .  S
C1446      C1449   1.374       .  A
S1447      C1448   1.723       .  A
C1448      C1449   1.389       .  A
C1449      H1455   1.085       .  S
S1450      C1451   1.725       .  A
C1451      C1452   1.390       .  A
C1452      H1456   1.085       .  S
C1457      S1463   1.706       .  A
C1457      C1462   1.387       .  A
C1457      C1458   1.404       .  A
C1458      C1459   1.403       .  A
C1458      H1469   1.086       .  S
C1459      C1468   1.375       .  A
C1459      C1460   1.387       .  A
C1460      S1466   1.707       .  A
C1460      C1461   1.405       .  A
C1461      C1462   1.404       .  A
C1461      H1470   1.085       .  S
C1462      C1465   1.377       .  A
S1463      C1464   1.725       .  A
C1464      C1465   1.388       .  A
C1465      H1471   1.084       .  S
S1466      C1467   1.725       .  A
C1467      C1468   1.388       .  A
C1468      H1472   1.085       .  S
C1473      S1479   1.710       .  A
C1473      C1478   1.387       .  A
C1473      C1474   1.402       .  A
C1474      C1475   1.404       .  A
C1474      H1485   1.085       .  S
C1475      C1484   1.371       .  A
C1475      C1476   1.387       .  A
C1476      S1482   1.710       .  A
C1476      C1477   1.401       .  A
C1477      C1478   1.403       .  A
C1477      H1486   1.085       .  S
C1478      C1481   1.370       .  A
S1479      C1480   1.722       .  A
C1480      C1481   1.386       .  A
C1481      H1487   1.085       .  S
S1482      C1483   1.721       .  A
C1483      C1484   1.387       .  A
C1484      H1488   1.084       .  S
C1489      S1495   1.704       .  A
C1489      C1494   1.387       .  A
C1489      C1490   1.400       .  A
C1490      C1491   1.401       .  A
C1490      H1501   1.083       .  S
C1491      C1500   1.369       .  A
C1491      C1492   1.386       .  A
C1492      S1498   1.715       .  A
C1492      C1493   1.407       .  A
C1493      C1494   1.407       .  A
C1493      H1502   1.083       .  S
C1494      C1497   1.378       .  A
S1495      C1496   1.723       .  A
C1496      C1497   1.389       .  A
C1497      H1503   1.083       .  S
S1498      C1499   1.725       .  A
C1499      C1500   1.387       .  A
C1500      H1504   1.083       .  S
C1505      S1511   1.710       .  A
C1505      C1510   1.387       .  A
C1505      C1506   1.406       .  A
C1506      C1507   1.405       .  A
C1506      H1517   1.085       .  S
C1507      C1516   1.376       .  A
C1507      C1508   1.388       .  A
C1508      S1514   1.699       .  A
C1508      C1509   1.397       .  A
C1509      C1510   1.398       .  A
C1509      H1518   1.086       .  S
C1510      C1513   1.368       .  A
S1511      C1512   1.726       .  A
C1512      C1513   1.383       .  A
C1513      H1519   1.085       .  S
S1514      C1515   1.721       .  A
C1515      C1516   1.388       .  A
C1516      H1520   1.084       .  S
C1521      S1527   1.712       .  A
C1521      C1526   1.387   1_556  A
C1521      C1522   1.403       .  A
C1522      C1523   1.405   1_556  A
C1522      H1533   1.083       .  S
C1523      C1532   1.371       .  A
C1523      C1524   1.387       .  A
C1524      S1530   1.709       .  A
C1524      C1525   1.401       .  A
C1525      C1526   1.402       .  A
C1525      H1534   1.083       .  S
C1526      C1529   1.368       .  A
S1527      C1528   1.723       .  A
C1528      C1529   1.385   1_556  A
C1529      H1535   1.083       .  S
S1530      C1531   1.722       .  A
C1531      C1532   1.388       .  A
C1532      H1536   1.083   1_554  S
C1537      S1543   1.709       .  A
C1537      C1542   1.387       .  A
C1537      C1538   1.405       .  A
C1538      C1539   1.405       .  A
C1538      H1549   1.084       .  S
C1539      C1548   1.376       .  A
C1539      C1540   1.387       .  A
C1540      S1546   1.705       .  A
C1540      C1541   1.401       .  A
C1541      C1542   1.401       .  A
C1541      H1550   1.084       .  S
C1542      C1545   1.372       .  A
S1543      C1544   1.726       .  A
C1544      C1545   1.385       .  A
C1545      H1551   1.083       .  S
S1546      C1547   1.723       .  A
C1547      C1548   1.388       .  A
C1548      H1552   1.083       .  S
C1553      S1559   1.701       .  A
C1553      C1558   1.387       .  A
C1553      C1554   1.397       .  A
C1554      C1555   1.398       .  A
C1554      H1565   1.086       .  S
C1555      C1564   1.367       .  A
C1555      C1556   1.386       .  A
C1556      S1562   1.716       .  A
C1556      C1557   1.409       .  A
C1557      C1558   1.410       .  A
C1557      H1566   1.085       .  S
C1558      C1561   1.380       .  A
S1559      C1560   1.720       .  A
C1560      C1561   1.391       .  A
C1561      H1567   1.084       .  S
S1562      C1563   1.727       .  A
C1563      C1564   1.383       .  A
C1564      H1568   1.085       .  S
C1569      S1575   1.701       .  A
C1569      C1574   1.387       .  A
C1569      C1570   1.396       .  A
C1570      C1571   1.397       .  A
C1570      H1581   1.085       .  S
C1571      C1580   1.363       .  A
C1571      C1572   1.386       .  A
C1572      S1578   1.715       .  A
C1572      C1573   1.406       .  A
C1573      C1574   1.407       .  A
C1573      H1582   1.084       .  S
C1574      C1577   1.375       .  A
S1575      C1576   1.720       .  A
C1576      C1577   1.389       .  A
C1577      H1583   1.083       .  S
S1578      C1579   1.724       .  A
C1579      C1580   1.384       .  A
C1580      H1584   1.085       .  S
C1585      S1591   1.706       .  A
C1585      C1590   1.387       .  A
C1585      C1586   1.404       .  A
C1586      C1587   1.403       .  A
C1586      H1597   1.084       .  S
C1587      C1596   1.376       .  A
C1587      C1588   1.387       .  A
C1588      S1594   1.706       .  A
C1588      C1589   1.405       .  A
C1589      C1590   1.404       .  A
C1589      H1598   1.084       .  S
C1590      C1593   1.377       .  A
S1591      C1592   1.724       .  A
C1592      C1593   1.389       .  A
C1593      H1599   1.084       .  S
S1594      C1595   1.726       .  A
C1595      C1596   1.387       .  A
C1596      H1600   1.084       .  S
C1601      S1607   1.717       .  A
C1601      C1606   1.386       .  A
C1601      C1602   1.407       .  A
C1602      C1603   1.408       .  A
C1602      H1613   1.084       .  S
C1603      C1612   1.374       .  A
C1603      C1604   1.387       .  A
C1604      S1610   1.705       .  A
C1604      C1605   1.396       .  A
C1605      C1606   1.399       .  A
C1605      H1614   1.084       .  S
C1606      C1609   1.364       .  A
S1607      C1608   1.726       .  A
C1608      C1609   1.385       .  A
C1609      H1615   1.084       .  S
S1610      C1611   1.718       .  A
C1611      C1612   1.390       .  A
C1612      H1616   1.084       .  S
C1617      S1623   1.709       .  A
C1617      C1622   1.387       .  A
C1617      C1618   1.400       .  A
C1618      C1619   1.402       .  A
C1618      H1629   1.086       .  S
C1619      C1628   1.368       .  A
C1619      C1620   1.387       .  A
C1620      S1626   1.709       .  A
C1620      C1621   1.401       .  A
C1621      C1622   1.403       .  A
C1621      H1630   1.086       .  S
C1622      C1625   1.368       .  A
S1623      C1624   1.721       .  A
C1624      C1625   1.387       .  A
C1625      H1631   1.085       .  S
S1626      C1627   1.722       .  A
C1627      C1628   1.386       .  A
C1628      H1632   1.085       .  S
C1633      S1639   1.707       .  A
C1633      C1638   1.387       .  A
C1633      C1634   1.404       .  A
C1634      C1635   1.404       .  A
C1634      H1645   1.085       .  S
C1635      C1644   1.375       .  A
C1635      C1636   1.388       .  A
C1636      S1642   1.702       .  A
C1636      C1637   1.400       .  A
C1637      C1638   1.399       .  A
C1637      H1646   1.086       .  S
C1638      C1641   1.371       .  A
S1639      C1640   1.725       .  A
C1640      C1641   1.384       .  A
C1641      H1647   1.085       .  S
S1642      C1643   1.723       .  A
C1643      C1644   1.387       .  A
C1644      H1648   1.084       .  S
C1649      S1655   1.714       .  A
C1649      C1654   1.386       .  A
C1649      C1650   1.406       .  A
C1650      C1651   1.407       .  A
C1650      H1661   1.085       .  S
C1651      C1660   1.376       .  A
C1651      C1652   1.387       .  A
C1652      S1658   1.705       .  A
C1652      C1653   1.400       .  A
C1653      C1654   1.401       .  A
C1653      H1662   1.086       .  S
C1654      C1657   1.368       .  A
S1655      C1656   1.725       .  A
C1656      C1657   1.386       .  A
C1657      H1663   1.085       .  S
S1658      C1659   1.723       .  A
C1659      C1660   1.389       .  A
C1660      H1664   1.084       .  S
C1665      S1671   1.709       .  A
C1665      C1670   1.387       .  A
C1665      C1666   1.401       .  A
C1666      C1667   1.403       .  A
C1666      H1677   1.083       .  S
C1667      C1676   1.368       .  A
C1667      C1668   1.387       .  A
C1668      S1674   1.713       .  A
C1668      C1669   1.403       .  A
C1669      C1670   1.405       .  A
C1669      H1678   1.083       .  S
C1670      C1673   1.371       .  A
S1671      C1672   1.721       .  A
C1672      C1673   1.388       .  A
C1673      H1679   1.083       .  S
S1674      C1675   1.723       .  A
C1675      C1676   1.387       .  A
C1676      H1680   1.083       .  S
C1681      S1687   1.710       .  A
C1681      C1686   1.387       .  A
C1681      C1682   1.401       .  A
C1682      C1683   1.403       .  A
C1682      H1693   1.085       .  S
C1683      C1692   1.368       .  A
C1683      C1684   1.387       .  A
C1684      S1690   1.711       .  A
C1684      C1685   1.402       .  A
C1685      C1686   1.404       .  A
C1685      H1694   1.085       .  S
C1686      C1689   1.370       .  A
S1687      C1688   1.723       .  A
C1688      C1689   1.387       .  A
C1689      H1695   1.084       .  S
S1690      C1691   1.722       .  A
C1691      C1692   1.387       .  A
C1692      H1696   1.085       .  S
C1697      S1703   1.700       .  A
C1697      C1702   1.388       .  A
C1697      C1698   1.397       .  A
C1698      C1699   1.398       .  A
C1698      H1709   1.085       .  S
C1699      C1708   1.366   1_565  A
C1699      C1700   1.387   1_565  A
C1700      S1706   1.711       .  A
C1700      C1701   1.404       .  A
C1701      C1702   1.405   1_545  A
C1701      H1710   1.085       .  S
C1702      C1705   1.374       .  A
S1703      C1704   1.719       .  A
C1704      C1705   1.387       .  A
C1705      H1711   1.084       .  S
S1706      C1707   1.724       .  A
C1707      C1708   1.383       .  A
C1708      H1712   1.085   1_545  S
C1713      S1719   1.705       .  A
C1713      C1718   1.387       .  A
C1713      C1714   1.404       .  A
C1714      C1715   1.403       .  A
C1714      H1725   1.084       .  S
C1715      C1724   1.374       .  A
C1715      C1716   1.388       .  A
C1716      S1722   1.702       .  A
C1716      C1717   1.400       .  A
C1717      C1718   1.400       .  A
C1717      H1726   1.084       .  S
C1718      C1721   1.372       .  A
S1719      C1720   1.726       .  A
C1720      C1721   1.384       .  A
C1721      H1727   1.083       .  S
S1722      C1723   1.721       .  A
C1723      C1724   1.386       .  A
C1724      H1728   1.084       .  S
C1729      S1735   1.708       .  A
C1729      C1734   1.387       .  A
C1729      C1730   1.401       .  A
C1730      C1731   1.402       .  A
C1730      H1741   1.084       .  S
C1731      C1740   1.369       .  A
C1731      C1732   1.387       .  A
C1732      S1738   1.709       .  A
C1732      C1733   1.401       .  A
C1733      C1734   1.402       .  A
C1733      H1742   1.084       .  S
C1734      C1737   1.369       .  A
S1735      C1736   1.721       .  A
C1736      C1737   1.386       .  A
C1737      H1743   1.084       .  S
S1738      C1739   1.721       .  A
C1739      C1740   1.387       .  A
C1740      H1744   1.084       .  S
C1745      S1751   1.702       .  A
C1745      C1750   1.387       .  A
C1745      C1746   1.396       .  A
C1746      C1747   1.398       .  A
C1746      H1757   1.083       .  S
C1747      C1756   1.364       .  A
C1747      C1748   1.386       .  A
C1748      S1754   1.716       .  A
C1748      C1749   1.406       .  A
C1749      C1750   1.408       .  A
C1749      H1758   1.082       .  S
C1750      C1753   1.375       .  A
S1751      C1752   1.721       .  A
C1752      C1753   1.389       .  A
C1753      H1759   1.082       .  S
S1754      C1755   1.725       .  A
C1755      C1756   1.384       .  A
C1756      H1760   1.083       .  S
C1761      S1767   1.703       .  A
C1761      C1766   1.387       .  A
C1761      C1762   1.401       .  A
C1762      C1763   1.401       .  A
C1762      H1773   1.085       .  S
C1763      C1772   1.373       .  A
C1763      C1764   1.387       .  A
C1764      S1770   1.708       .  A
C1764      C1765   1.405       .  A
C1765      C1766   1.404       .  A
C1765      H1774   1.085       .  S
C1766      C1769   1.375       .  A
S1767      C1768   1.723       .  A
C1768      C1769   1.387       .  A
C1769      H1775   1.084       .  S
S1770      C1771   1.725       .  A
C1771      C1772   1.385       .  A
C1772      H1776   1.084       .  S
C1777      S1783   1.707       .  A
C1777      C1782   1.387       .  A
C1777      C1778   1.403       .  A
C1778      C1779   1.403       .  A
C1778      H1789   1.086       .  S
C1779      C1788   1.375       .  A
C1779      C1780   1.387       .  A
C1780      S1786   1.709       .  A
C1780      C1781   1.405       .  A
C1781      C1782   1.405       .  A
C1781      H1790   1.085       .  S
C1782      C1785   1.377       .  A
S1783      C1784   1.724       .  A
C1784      C1785   1.388       .  A
C1785      H1791   1.084       .  S
S1786      C1787   1.726       .  A
C1787      C1788   1.387       .  A
C1788      H1792   1.085       .  S
C1793      S1799   1.703       .  A
C1793      C1798   1.387       .  A
C1793      C1794   1.396       .  A
C1794      C1795   1.398       .  A
C1794      H1805   1.086       .  S
C1795      C1804   1.364       .  A
C1795      C1796   1.386       .  A
C1796      S1802   1.716       .  A
C1796      C1797   1.406       .  A
C1797      C1798   1.408       .  A
C1797      H1806   1.086       .  S
C1798      C1801   1.375       .  A
S1799      C1800   1.719       .  A
C1800      C1801   1.390       .  A
C1801      H1807   1.085       .  S
S1802      C1803   1.726       .  A
C1803      C1804   1.384       .  A
C1804      H1808   1.085       .  S
C1809      S1815   1.715       .  A
C1809      C1814   1.386       .  A
C1809      C1810   1.405       .  A
C1810      C1811   1.407       .  A
C1810      H1821   1.082       .  S
C1811      C1820   1.373       .  A
C1811      C1812   1.387       .  A
C1812      S1818   1.708       .  A
C1812      C1813   1.400       .  A
C1813      C1814   1.402       .  A
C1813      H1822   1.083       .  S
C1814      C1817   1.368       .  A
S1815      C1816   1.724       .  A
C1816      C1817   1.387       .  A
C1817      H1823   1.083       .  S
S1818      C1819   1.721       .  A
C1819      C1820   1.390       .  A
C1820      H1824   1.083       .  S
C1825      S1831   1.711       .  A
C1825      C1830   1.387       .  A
C1825      C1826   1.405       .  A
C1826      C1827   1.405       .  A
C1826      H1837   1.083       .  S
C1827      C1836   1.375       .  A
C1827      C1828   1.387       .  A
C1828      S1834   1.703       .  A
C1828      C1829   1.400       .  A
C1829      C1830   1.400       .  A
C1829      H1838   1.083       .  S
C1830      C1833   1.369       .  A
S1831      C1832   1.724       .  A
C1832      C1833   1.385       .  A
C1833      H1839   1.083       .  S
S1834      C1835   1.721       .  A
C1835      C1836   1.387       .  A
C1836      H1840   1.083       .  S
C1841      S1847   1.716       .  A
C1841      C1846   1.386       .  A
C1841      C1842   1.407       .  A
C1842      C1843   1.408       .  A
C1842      H1853   1.084       .  S
C1843      C1852   1.377       .  A
C1843      C1844   1.387       .  A
C1844      S1850   1.700       .  A
C1844      C1845   1.396       .  A
C1845      C1846   1.397       .  A
C1845      H1854   1.085       .  S
C1846      C1849   1.365       .  A
S1847      C1848   1.726       .  A
C1848      C1849   1.383       .  A
C1849      H1855   1.084       .  S
S1850      C1851   1.721       .  A
C1851      C1852   1.390       .  A
C1852      H1856   1.084       .  S
C1857      S1863   1.716       .  A
C1857      C1862   1.386       .  A
C1857      C1858   1.406       .  A
C1858      C1859   1.408       .  A
C1858      H1869   1.083       .  S
C1859      C1868   1.373       .  A
C1859      C1860   1.387       .  A
C1860      S1866   1.710       .  A
C1860      C1861   1.400       .  A
C1861      C1862   1.402       .  A
C1861      H1870   1.083       .  S
C1862      C1865   1.368       .  A
S1863      C1864   1.726       .  A
C1864      C1865   1.386       .  A
C1865      H1871   1.083       .  S
S1866      C1867   1.721       .  A
C1867      C1868   1.391       .  A
C1868      H1872   1.083       .  S
C1873      S1879   1.713       .  A
C1873      C1878   1.386       .  A
C1873      C1874   1.403       .  A
C1874      C1875   1.405       .  A
C1874      H1885   1.084       .  S
C1875      C1884   1.371       .  A
C1875      C1876   1.387       .  A
C1876      S1882   1.710       .  A
C1876      C1877   1.401       .  A
C1877      C1878   1.403       .  A
C1877      H1886   1.084       .  S
C1878      C1881   1.369       .  A
S1879      C1880   1.724       .  A
C1880      C1881   1.387       .  A
C1881      H1887   1.084       .  S
S1882      C1883   1.721       .  A
C1883      C1884   1.389       .  A
C1884      H1888   1.084       .  S
C1889      S1895   1.710       .  A
C1889      C1894   1.387       .  A
C1889      C1890   1.404       .  A
C1890      C1891   1.405       .  A
C1890      H1901   1.084       .  S
C1891      C1900   1.374   1_554  A
C1891      C1892   1.386       .  A
C1892      S1898   1.713   1_554  A
C1892      C1893   1.405       .  A
C1893      C1894   1.406       .  A
C1893      H1902   1.084       .  S
C1894      C1897   1.375       .  A
S1895      C1896   1.725       .  A
C1896      C1897   1.388       .  A
C1897      H1903   1.083       .  S
S1898      C1899   1.726       .  A
C1899      C1900   1.389       .  A
C1900      H1904   1.084       .  S
C1905      S1911   1.711       .  A
C1905      C1910   1.387       .  A
C1905      C1906   1.402       .  A
C1906      C1907   1.404       .  A
C1906      H1917   1.083       .  S
C1907      C1916   1.369       .  A
C1907      C1908   1.387       .  A
C1908      S1914   1.704       .  A
C1908      C1909   1.397       .  A
C1909      C1910   1.399       .  A
C1909      H1918   1.083       .  S
C1910      C1913   1.364       .  A
S1911      C1912   1.723       .  A
C1912      C1913   1.384       .  A
C1913      H1919   1.083       .  S
S1914      C1915   1.720       .  A
C1915      C1916   1.387       .  A
C1916      H1920   1.083       .  S
C1921      S1927   1.701       .  A
C1921      C1926   1.388       .  A
C1921      C1922   1.401       .  A
C1922      C1923   1.401       .  A
C1922      H1933   1.084       .  S
C1923      C1932   1.372       .  A
C1923      C1924   1.388       .  A
C1924      S1930   1.703       .  A
C1924      C1925   1.402       .  A
C1925      C1926   1.401       .  A
C1925      H1934   1.084       .  S
C1926      C1929   1.373       .  A
S1927      C1928   1.724       .  A
C1928      C1929   1.385       .  A
C1929      H1935   1.084       .  S
S1930      C1931   1.723       .  A
C1931      C1932   1.385       .  A
C1932      H1936   1.084       .  S
C1937      S1943   1.699       .  A
C1937      C1942   1.387       .  A
C1937      C1938   1.397       .  A
C1938      C1939   1.398       .  A
C1938      H1949   1.083       .  S
C1939      C1948   1.367       .  A
C1939      C1940   1.386       .  A
C1940      S1946   1.716       .  A
C1940      C1941   1.409       .  A
C1941      C1942   1.409       .  A
C1941      H1950   1.082       .  S
C1942      C1945   1.379       .  A
S1943      C1944   1.721       .  A
C1944      C1945   1.391       .  A
C1945      H1951   1.082       .  S
S1946      C1947   1.727       .  A
C1947      C1948   1.385       .  A
C1948      H1952   1.083       .  S
C1953      S1959   1.706       .  A
C1953      C1958   1.387       .  A
C1953      C1954   1.397       .  A
C1954      C1955   1.400       .  A
C1954      H1965   1.086       .  S
C1955      C1964   1.365       .  A
C1955      C1956   1.386       .  A
C1956      S1962   1.717       .  A
C1956      C1957   1.406       .  A
C1957      C1958   1.408       .  A
C1957      H1966   1.086       .  S
C1958      C1961   1.373       .  A
S1959      C1960   1.719       .  A
C1960      C1961   1.390       .  A
C1961      H1967   1.085       .  S
S1962      C1963   1.726       .  A
C1963      C1964   1.385       .  A
C1964      H1968   1.085       .  S
C1969      S1975   1.706       .  A
C1969      C1974   1.387       .  A
C1969      C1970   1.403       .  A
C1970      C1971   1.403       .  A
C1970      H1981   1.086       .  S
C1971      C1980   1.374       .  A
C1971      C1972   1.387       .  A
C1972      S1978   1.708       .  A
C1972      C1973   1.403       .  A
C1973      C1974   1.403       .  A
C1973      H1982   1.086       .  S
C1974      C1977   1.374       .  A
S1975      C1976   1.725       .  A
C1976      C1977   1.386       .  A
C1977      H1983   1.085       .  S
S1978      C1979   1.724       .  A
C1979      C1980   1.388       .  A
C1980      H1984   1.085       .  S
C1985      S1991   1.711       .  A
C1985      C1990   1.387       .  A
C1985      C1986   1.404       .  A
C1986      C1987   1.405       .  A
C1986      H1997   1.083       .  S
C1987      C1996   1.374       .  A
C1987      C1988   1.387       .  A
C1988      S1994   1.705       .  A
C1988      C1989   1.400       .  A
C1989      C1990   1.401       .  A
C1989      H1998   1.083       .  S
C1990      C1993   1.369       .  A
S1991      C1992   1.723       .  A
C1992      C1993   1.385       .  A
C1993      H1999   1.083       .  S
S1994      C1995   1.723       .  A
C1995      C1996   1.387       .  A
C1996      H2000   1.083       .  S
C2001      S2007   1.711       .  A
C2001      C2006   1.387       .  A
C2001      C2002   1.403       .  A
C2002      C2003   1.405       .  A
C2002      H2013   1.083       .  S
C2003      C2012   1.372       .  A
C2003      C2004   1.387       .  A
C2004      S2010   1.710       .  A
C2004      C2005   1.402       .  A
C2005      C2006   1.403       .  A
C2005      H2014   1.083       .  S
C2006      C2009   1.370       .  A
S2007      C2008   1.723       .  A
C2008      C2009   1.387       .  A
C2009      H2015   1.083       .  S
S2010      C2011   1.723       .  A
C2011      C2012   1.389       .  A
C2012      H2016   1.083       .  S
C2017      S2023   1.713       .  A
C2017      C2022   1.387       .  A
C2017      C2018   1.402       .  A
C2018      C2019   1.404       .  A
C2018      H2029   1.084       .  S
C2019      C2028   1.368       .  A
C2019      C2020   1.387       .  A
C2020      S2026   1.710       .  A
C2020      C2021   1.399       .  A
C2021      C2022   1.402       .  A
C2021      H2030   1.084       .  S
C2022      C2025   1.366       .  A
S2023      C2024   1.723       .  A
C2024      C2025   1.386       .  A
C2025      H2031   1.084       .  S
S2026      C2027   1.721       .  A
C2027      C2028   1.387       .  A
C2028      H2032   1.084       .  S
C2033      S2039   1.701       .  A
C2033      C2038   1.387       .  A
C2033      C2034   1.398       .  A
C2034      C2035   1.399       .  A
C2034      H2045   1.085       .  S
C2035      C2044   1.367       .  A
C2035      C2036   1.386       .  A
C2036      S2042   1.715       .  A
C2036      C2037   1.407       .  A
C2037      C2038   1.408       .  A
C2037      H2046   1.084       .  S
C2038      C2041   1.378       .  A
S2039      C2040   1.722       .  A
C2040      C2041   1.390       .  A
C2041      H2047   1.083       .  S
S2042      C2043   1.726       .  A
C2043      C2044   1.385       .  A
C2044      H2048   1.084       .  S
C2049      S2055   1.710       .  A
C2049      C2054   1.387       .  A
C2049      C2050   1.406       .  A
C2050      C2051   1.406       .  A
C2050      H2061   1.082       .  S
C2051      C2060   1.375       .  A
C2051      C2052   1.388       .  A
C2052      S2058   1.700       .  A
C2052      C2053   1.398       .  A
C2053      C2054   1.398       .  A
C2053      H2062   1.082       .  S
C2054      C2057   1.368       .  A
S2055      C2056   1.726       .  A
C2056      C2057   1.383       .  A
C2057      H2063   1.083       .  S
S2058      C2059   1.720       .  A
C2059      C2060   1.388       .  A
C2060      H2064   1.083       .  S
C2065      S2071   1.715       .  A
C2065      C2070   1.386       .  A
C2065      C2066   1.405       .  A
C2066      C2067   1.406       .  A
C2066      H2077   1.085       .  S
C2067      C2076   1.373       .  A
C2067      C2068   1.387       .  A
C2068      S2074   1.710       .  A
C2068      C2069   1.401       .  A
C2069      C2070   1.403       .  A
C2069      H2078   1.085       .  S
C2070      C2073   1.369       .  A
S2071      C2072   1.724       .  A
C2072      C2073   1.388       .  A
C2073      H2079   1.085       .  S
S2074      C2075   1.722       .  A
C2075      C2076   1.389       .  A
C2076      H2080   1.084       .  S
C2081      S2087   1.714       .  A
C2081      C2086   1.387       .  A
C2081      C2082   1.405       .  A
C2082      C2083   1.406       .  A
C2082      H2093   1.085       .  S
C2083      C2092   1.373       .  A
C2083      C2084   1.388       .  A
C2084      S2090   1.701       .  A
C2084      C2085   1.395       .  A
C2085      C2086   1.397       .  A
C2085      H2094   1.085       .  S
C2086      C2089   1.363       .  A
S2087      C2088   1.725       .  A
C2088      C2089   1.382       .  A
C2089      H2095   1.085       .  S
S2090      C2091   1.717       .  A
C2091      C2092   1.387       .  A
C2092      H2096   1.084       .  S
C2097      S2103   1.710       .  A
C2097      C2102   1.387       .  A
C2097      C2098   1.401       .  A
C2098      C2099   1.403       .  A
C2098      H2109   1.084       .  S
C2099      C2108   1.369       .  A
C2099      C2100   1.387       .  A
C2100      S2106   1.712       .  A
C2100      C2101   1.402       .  A
C2101      C2102   1.404       .  A
C2101      H2110   1.084       .  S
C2102      C2105   1.370       .  A
S2103      C2104   1.722       .  A
C2104      C2105   1.387       .  A
C2105      H2111   1.084       .  S
S2106      C2107   1.722       .  A
C2107      C2108   1.387       .  A
C2108      H2112   1.084       .  S
C2113      S2119   1.705       .  A
C2113      C2118   1.387       .  A
C2113      C2114   1.403       .  A
C2114      C2115   1.402       .  A
C2114      H2125   1.084       .  S
C2115      C2124   1.374       .  A
C2115      C2116   1.388       .  A
C2116      S2122   1.702       .  A
C2116      C2117   1.401       .  A
C2117      C2118   1.400       .  A
C2117      H2126   1.084       .  S
C2118      C2121   1.371       .  A
S2119      C2120   1.723       .  A
C2120      C2121   1.385       .  A
C2121      H2127   1.083       .  S
S2122      C2123   1.722       .  A
C2123      C2124   1.386       .  A
C2124      H2128   1.084       .  S
C2129      S2135   1.701   1_455  A
C2129      C2134   1.387       .  A
C2129      C2130   1.397       .  A
C2130      C2131   1.398       .  A
C2130      H2141   1.083       .  S
C2131      C2140   1.367       .  A
C2131      C2132   1.386       .  A
C2132      S2138   1.715       .  A
C2132      C2133   1.408       .  A
C2133      C2134   1.408       .  A
C2133      H2142   1.083       .  S
C2134      C2137   1.378   1_455  A
S2135      C2136   1.720       .  A
C2136      C2137   1.390       .  A
C2137      H2143   1.083       .  S
S2138      C2139   1.727       .  A
C2139      C2140   1.384       .  A
C2140      H2144   1.083       .  S
C2145      S2151   1.714       .  A
C2145      C2150   1.386       .  A
C2145      C2146   1.408       .  A
C2146      C2147   1.408       .  A
C2146      H2157   1.083       .  S
C2147      C2156   1.380       .  A
C2147      C2148   1.387       .  A
C2148      S2154   1.702       .  A
C2148      C2149   1.400       .  A
C2149      C2150   1.400       .  A
C2149      H2158   1.084       .  S
C2150      C2153   1.371       .  A
S2151      C2152   1.727       .  A
C2152      C2153   1.386       .  A
C2153      H2159   1.084       .  S
S2154      C2155   1.723       .  A
C2155      C2156   1.391       .  A
C2156      H2160   1.083       .  S
