geometry optimzed in LAMMPS
_audit_creation_date              2020-12-01 
_audit_creation_method            'lammps2cif' 
_symmetry_space_group_name_H-M    'P1' 
_symmetry_Int_Tables_number       1 
_symmetry_cell_setting            triclinic 
loop_ 
_symmetry_equiv_pos_as_xyz 
  x,y,z 
_cell_length_a                    59.9138787 
_cell_length_b                    59.83502710332506 
_cell_length_c                    15.99616961719478 
_cell_angle_alpha                 89.71793650964273 
_cell_angle_beta                  90.07913394895317 
_cell_angle_gamma                 90.03455737065362 
loop_ 
_atom_site_label 
_atom_site_type_symbol 
_atom_site_fract_x 
_atom_site_fract_y 
_atom_site_fract_z 
_atom_site_charge 
O1          O  0.39245217  0.61929362  0.38628112    -0.74500
O2          O  0.39387473  0.68303958  0.35894744    -0.74500
O3          O  0.36123743  0.65152399  0.37224859    -0.74600
O4          O  0.42505589  0.65028209  0.37412865    -0.74600
O5          O  0.42551419  0.64771080  0.23503501    -0.74600
O6          O  0.36131119  0.64699460  0.23384396    -0.74600
O7          O  0.39285779  0.67886529  0.22043772    -0.74500
O8          O  0.39394381  0.61557115  0.24765239    -0.74600
Ni9        Ni  0.39314895  0.65125305  0.37786302     1.25400
Ni10       Ni  0.39340798  0.64713820  0.22929637     1.25400
C11         C  0.39333602  0.60698551  0.32108639     0.87700
C12         C  0.39327683  0.69138285  0.28495144     0.87600
C13         C  0.35076115  0.64918140  0.30302984     0.87600
C14         C  0.43579960  0.64859070  0.30529501     0.87800
O15         O  0.39716735  0.92570717  0.05914155    -0.74500
O16         O  0.39452041  0.86272971  0.10217265    -0.74500
O17         O  0.36411716  0.89581136  0.08595123    -0.74600
O18         O  0.42767323  0.89261740  0.07489280    -0.74600
O19         O  0.43000746  0.90107113  0.21025441    -0.74600
O20         O  0.36606438  0.89978349  0.22444616    -0.74600
O21         O  0.39892225  0.86905212  0.23855652    -0.74500
O22         O  0.39700075  0.93189970  0.19660421    -0.74600
Ni23       Ni  0.39581975  0.89398091  0.07560610     1.25400
Ni24       Ni  0.39810028  0.90070309  0.22244560     1.25400
C25         C  0.39692490  0.93915729  0.12116489     0.87700
C26         C  0.39651456  0.85553997  0.17741820     0.87600
C27         C  0.35462370  0.89792201  0.15707847     0.87600
C28         C  0.43935832  0.89659780  0.14025480     0.87800
O29         O  0.14159228  0.62121374  0.22627089    -0.74500
O30         O  0.14026328  0.68372704  0.28068676    -0.74500
O31         O  0.17297376  0.65337197  0.25188474    -0.74600
O32         O  0.10919738  0.65189799  0.25453016    -0.74600
O33         O  0.10946308  0.64319664  0.05690367    -0.74600
O34         O  0.17372264  0.64450099  0.05408846    -0.74600
O35         O  0.14130416  0.67510683  0.08316742    -0.74500
O36         O  0.14243664  0.61285779  0.02896862    -0.74600
Ni37       Ni  0.14098981  0.65283704  0.24854394     1.25400
Ni38       Ni  0.14169967  0.64362490  0.06065483     1.25400
C39         C  0.14248859  0.60676767  0.28569216     0.87700
C40         C  0.14067222  0.68967796  0.02425606     0.87600
C41         C  0.18391209  0.64909804  0.31896247     0.87600
C42         C  0.09874748  0.64749820  0.32241721     0.87800
O43         O  0.14731257  0.92422626  0.25997792    -0.74500
O44         O  0.14646724  0.86061994  0.22265843    -0.74500
O45         O  0.17866131  0.89201857  0.23597458    -0.74600
O46         O  0.11504563  0.89237647  0.24755874    -0.74600
O47         O  0.11307656  0.89955919  0.11080174    -0.74600
O48         O  0.17696823  0.89728761  0.09795716    -0.74600
O49         O  0.14340252  0.86683996  0.08553192    -0.74500
O50         O  0.14670387  0.92982484  0.12203711    -0.74600
Ni51       Ni  0.14691916  0.89213123  0.24651772     1.25400
Ni52       Ni  0.14495718  0.89857911  0.09920009     1.25400
C53         C  0.14764396  0.93746002  0.19656231     0.87700
C54         C  0.14453531  0.85332119  0.14772000     0.87600
C55         C  0.18831525  0.89447339  0.16520200     0.87600
C56         C  0.10355203  0.89593397  0.18130148     0.87800
O57         O  0.42163276  0.39810298  0.93416193    -0.74500
O58         O  0.35810980  0.39921262  0.96888225    -0.74500
O59         O  0.39061790  0.43045863  0.95170859    -0.74600
O60         O  0.38926416  0.36656968  0.95080138    -0.74600
O61         O  0.39578234  0.36618679  0.08813807    -0.74600
O62         O  0.39461901  0.43013621  0.09046981    -0.74600
O63         O  0.36364219  0.39742022  0.10669389    -0.74500
O64         O  0.42671950  0.39837535  0.07236321    -0.74600
Ni65       Ni  0.38967139  0.39860281  0.94637966     1.25400
Ni66       Ni  0.39535770  0.39807277  0.09429058     1.25400
C67         C  0.43459816  0.39787926  0.99800747     0.87700
C68         C  0.35046922  0.39822792  0.04369431     0.87600
C69         C  0.39278731  0.44078197  0.02112555     0.87600
C70         C  0.39278962  0.35585349  0.01910677     0.87800
O71         O  0.11641818  0.39819637  0.27582116    -0.74500
O72         O  0.17946744  0.39665465  0.23269638    -0.74500
O73         O  0.14928536  0.42944668  0.26211788    -0.74600
O74         O  0.14659026  0.36576712  0.24743155    -0.74600
O75         O  0.14134404  0.36827893  0.10958557    -0.74600
O76         O  0.14157422  0.43251467  0.12615018    -0.74600
O77         O  0.17283122  0.40081483  0.09627355    -0.74500
O78         O  0.11001732  0.40036368  0.13861510    -0.74600
Ni79       Ni  0.14819122  0.39745319  0.25935938     1.25400
Ni80       Ni  0.14120110  0.40056000  0.11272413     1.25400
C81         C  0.10283984  0.39936646  0.21394001     0.87700
C82         C  0.18650942  0.39866700  0.15734139     0.87600
C83         C  0.14570131  0.44152891  0.19710011     0.87600
C84         C  0.14363890  0.35650709  0.17636124     0.87800
O85         O  0.42659789  0.14696975  0.12385872    -0.74500
O86         O  0.36340197  0.14973192  0.08481862    -0.74500
O87         O  0.39331982  0.11653342  0.11219159    -0.74600
O88         O  0.39675747  0.18012030  0.09707368    -0.74600
O89         O  0.40022375  0.17779346  0.29180863    -0.74600
O90         O  0.40129434  0.11387020  0.97645529    -0.74600
O91         O  0.36929039  0.14495519  0.28176124    -0.74500
O92         O  0.43226557  0.14680597  0.98602515    -0.74600
Ni93       Ni  0.39479684  0.14841449  0.10944812     1.25400
Ni94       Ni  0.40099132  0.14574455  0.29573149     1.25400
C95         C  0.43981786  0.14697871  0.06095331     0.87700
C96         C  0.35594756  0.14746990  0.01013719     0.87600
C97         C  0.39708977  0.10468816  0.04727665     0.87600
C98         C  0.39869801  0.18943150  0.02526073     0.87800
O99         O  0.12120943  0.14545399  0.12094760    -0.74500
O100        O  0.18442204  0.14658907  0.16017703    -0.74500
O101        O  0.15333075  0.11420448  0.14701617    -0.74600
O102        O  0.15258768  0.17815742  0.13361701    -0.74600
O103        O  0.14620020  0.17995125  0.27071122    -0.74600
O104        O  0.14712763  0.11574298  0.28426309    -0.74600
O105        O  0.17829312  0.14875916  0.29742990    -0.74500
O106        O  0.11540213  0.14742166  0.25844848    -0.74600
Ni107      Ni  0.15308887  0.14604828  0.13553448     1.25400
Ni108      Ni  0.14657370  0.14799113  0.28262020     1.25400
C109        C  0.10792340  0.14650975  0.18356913     0.87700
C110        C  0.19172778  0.14785428  0.23534215     0.87600
C111        C  0.15047488  0.10439529  0.21756954     0.87600
C112        C  0.14906288  0.18961858  0.19978763     0.87800
O113        O  0.64292259  0.42078284  0.38232910    -0.74500
O114        O  0.64311412  0.35750237  0.34388450    -0.74500
O115        O  0.67505326  0.38923992  0.36585930    -0.74600
O116        O  0.61123885  0.38897428  0.36092761    -0.74600
O117        O  0.61168333  0.39623279  0.22407703    -0.74600
O118        O  0.67577329  0.39402196  0.22742391    -0.74600
O119        O  0.64310995  0.36375432  0.20623123    -0.74500
O120        O  0.64489976  0.42667818  0.24471897    -0.74600
Ni121      Ni  0.64305806  0.38891360  0.36818184     1.25400
Ni122      Ni  0.64383414  0.39541917  0.22070273     1.25400
C123        C  0.64423332  0.43412446  0.31958971     0.87700
C124        C  0.64321526  0.35026843  0.26858374     0.87600
C125        C  0.68590622  0.39134899  0.29734817     0.87600
C126        C  0.60090451  0.39261055  0.29207358     0.87800
O127        O  0.64854071  0.11670940  0.03570252    -0.74500
O128        O  0.64898262  0.17976340  0.07996910    -0.74500
O129        O  0.68056572  0.14811736  0.06108891    -0.74600
O130        O  0.61693072  0.14878707  0.05357934    -0.74600
O131        O  0.61542079  0.14062095  0.18963092    -0.74600
O132        O  0.67955143  0.14183818  0.19858566    -0.74600
O133        O  0.64650096  0.17261824  0.21666451    -0.74500
O134        O  0.64851701  0.11002148  0.17304930    -0.74600
Ni135      Ni  0.64877963  0.14856294  0.05267044     1.25400
Ni136      Ni  0.64744176  0.14103019  0.19939523     1.25400
C137        C  0.64890295  0.10301697  0.09763633     0.87700
C138        C  0.64759703  0.18651545  0.15572300     0.87600
C139        C  0.69059288  0.14502261  0.13088251     0.87600
C140        C  0.60564562  0.14491030  0.11998542     0.87800
O141        O  0.89264320  0.42033915  0.20436495    -0.74500
O142        O  0.89555456  0.35677144  0.23765778    -0.74500
O143        O  0.86227559  0.38705813  0.22655262    -0.74600
O144        O  0.92597549  0.39013708  0.21483924    -0.74600
O145        O  0.92778190  0.39483922  0.01959762    -0.74600
O146        O  0.86379868  0.39224362  0.03104440    -0.74600
O147        O  0.89748124  0.36196949  0.04208056    -0.74500
O148        O  0.89400405  0.42512765  0.00916990    -0.74600
Ni149      Ni  0.89407204  0.38837642  0.21591252     1.25400
Ni150      Ni  0.89583904  0.39371504  0.03036916     1.25400
C151        C  0.89265857  0.43315863  0.26832759     0.87700
C152        C  0.89697757  0.34894524  0.97886821     0.87600
C153        C  0.85251608  0.38926822  0.29722023     0.87600
C154        C  0.93735306  0.39308410  0.28172194     0.87800
O155        O  0.89949549  0.11551593  0.22200728    -0.74500
O156        O  0.89887150  0.17836539  0.17339114    -0.74500
O157        O  0.86726985  0.14620521  0.19623400    -0.74600
O158        O  0.93098801  0.14764836  0.19978972    -0.74600
O159        O  0.93195690  0.14038181  0.06321197    -0.74600
O160        O  0.86790890  0.13918922  0.05930701    -0.74600
O161        O  0.89923029  0.17105127  0.03673804    -0.74500
O162        O  0.90065008  0.10842748  0.08525927    -0.74600
Ni163      Ni  0.89912258  0.14719861  0.20271324     1.25400
Ni164      Ni  0.89994802  0.13947934  0.05624810     1.25400
C165        C  0.90031296  0.10164633  0.16132696     0.87700
C166        C  0.89898372  0.18502142  0.09707507     0.87600
C167        C  0.85711449  0.14250083  0.12724880     0.87600
C168        C  0.94199404  0.14436365  0.13238547     0.87800
O169        O  0.61540136  0.64342770  0.96206847    -0.74500
O170        O  0.67856785  0.64377970  0.00651382    -0.74500
O171        O  0.64757305  0.61161276  0.97952371    -0.74600
O172        O  0.64682248  0.67526236  0.98778112    -0.74600
O173        O  0.63985200  0.67394832  0.12462774    -0.74600
O174        O  0.64047230  0.60969510  0.11619308    -0.74600
O175        O  0.67159373  0.64171623  0.14327950    -0.74500
O176        O  0.60889612  0.64151084  0.09917542    -0.74600
Ni177      Ni  0.64729578  0.64354968  0.97909186     1.25400
Ni178      Ni  0.63996478  0.64170393  0.12572932     1.25400
C179        C  0.60176724  0.64229896  0.02376714     0.87700
C180        C  0.68542746  0.64275811  0.08243236     0.87600
C181        C  0.64425966  0.60011773  0.04609447     0.87600
C182        C  0.64341339  0.68515162  0.05728008     0.87800
O183        O  0.91887513  0.64163733  0.32851505    -0.74500
O184        O  0.85580973  0.64166477  0.28258723    -0.74500
O185        O  0.88713956  0.60984817  0.30354545    -0.74600
O186        O  0.88718947  0.67373820  0.30770629    -0.74600
O187        O  0.89452444  0.67456695  0.17107245    -0.74600
O188        O  0.89425159  0.61048210  0.16674441    -0.74600
O189        O  0.86291708  0.64293571  0.14579224    -0.74500
O190        O  0.92559213  0.64263977  0.19142808    -0.74600
Ni191      Ni  0.88702396  0.64169337  0.31050701     1.25400
Ni192      Ni  0.89455436  0.64262756  0.16390507     1.25400
C193        C  0.93259829  0.64252879  0.26709827     0.87700
C194        C  0.84902377  0.64234347  0.20656299     0.87600
C195        C  0.89045457  0.59961767  0.23455719     0.87600
C196        C  0.89101806  0.68469774  0.24020018     0.87800
O197        O  0.61823514  0.89622203  0.13636197    -0.74500
O198        O  0.68129445  0.89224052  0.09820128    -0.74500
O199        O  0.65183937  0.92608195  0.11659495    -0.74600
O200        O  0.64769225  0.86236915  0.11849579    -0.74600
O201        O  0.64414620  0.86258064  0.31294703    -0.74600
O202        O  0.64385017  0.92674438  0.31375087    -0.74600
O203        O  0.67540943  0.89491620  0.29409544    -0.74500
O204        O  0.61246665  0.89434191  0.99875303    -0.74600
Ni205      Ni  0.64998272  0.89423195  0.12237036     1.25400
Ni206      Ni  0.64373578  0.89466472  0.30823668     1.25400
C207        C  0.60496681  0.89535521  0.07357760     0.87700
C208        C  0.68871779  0.89336232  0.02316846     0.87600
C209        C  0.64830690  0.93695538  0.04868443     0.87600
C210        C  0.64559341  0.85196737  0.04921426     0.87800
O211        O  0.92519116  0.89348189  0.16265538    -0.74500
O212        O  0.86155351  0.89405429  0.18867748    -0.74500
O213        O  0.89393991  0.92545064  0.17212115    -0.74600
O214        O  0.89329262  0.86169948  0.17807856    -0.74600
O215        O  0.89682429  0.86218088  0.31698652    -0.74600
O216        O  0.89768067  0.92639560  0.31091356    -0.74600
O217        O  0.86574084  0.89444180  0.32732340    -0.74500
O218        O  0.92906379  0.89369383  0.30144274    -0.74600
Ni219      Ni  0.89328547  0.89362518  0.17047058     1.25400
Ni220      Ni  0.89748097  0.89424574  0.31914638     1.25400
C221        C  0.93755960  0.89352028  0.22802611     0.87700
C222        C  0.85322705  0.89414838  0.26249931     0.87600
C223        C  0.89628753  0.93640922  0.24000797     0.87600
C224        C  0.89498897  0.85143648  0.24821910     0.87800
C225        C  0.78740177  0.86760668  0.08438609    -0.17900
C226        C  0.76434351  0.86742495  0.09765273    -0.20100
C227        C  0.75015725  0.88013170  0.04627565     0.20600
C228        C  0.75925572  0.89289440  0.31337986    -0.03000
C229        C  0.78251655  0.89308878  0.30002294    -0.06100
C230        C  0.79663921  0.88049628  0.35286611     0.20800
C231        C  0.79163418  0.90592285  0.23400565     0.19000
C232        C  0.77742902  0.91857661  0.18250863    -0.17600
C233        C  0.75436507  0.91843329  0.19591328    -0.19800
C234        C  0.74512870  0.90558714  0.26087078     0.20500
C235        C  0.72202858  0.90527400  0.27446606    -0.32800
C236        C  0.71295842  0.89300032  0.34142130     0.01200
C237        C  0.72708050  0.88052976  0.06058340    -0.24100
C238        C  0.81975351  0.88113619  0.34028737    -0.28700
C239        C  0.82888149  0.89362454  0.27403276     0.06900
C240        C  0.81477144  0.90579047  0.22051547    -0.27400
H241        H  0.79805030  0.85788739  0.12555493     0.11600
H242        H  0.75763498  0.85759794  0.14885445     0.12700
H243        H  0.78413880  0.92843404  0.13139818     0.11800
H244        H  0.74372318  0.92821326  0.15493557     0.11000
H245        H  0.71112515  0.91496728  0.23406798     0.16400
H246        H  0.72006855  0.87096973  0.11200030     0.12300
H247        H  0.83066916  0.87169498  0.04816903     0.15200
H248        H  0.82185594  0.91549102  0.16962260     0.15000
C249        C  0.91890253  0.77979514  0.12772010    -0.17900
C250        C  0.91827842  0.75644458  0.12637189    -0.20100
C251        C  0.90532326  0.74459170  0.18465252     0.20600
C252        C  0.89313751  0.75634585  0.24576472    -0.03000
C253        C  0.89382512  0.77990950  0.24730833    -0.06100
C254        C  0.90661012  0.79166378  0.18744978     0.20800
C255        C  0.88166596  0.79169544  0.30848082     0.19000
C256        C  0.86875239  0.77982359  0.36685823    -0.17600
C257        C  0.86801997  0.75645743  0.36516274    -0.19800
C258        C  0.88022679  0.74457111  0.30517658     0.20500
C259        C  0.87980953  0.72113252  0.30368670    -0.32800
C260        C  0.89162523  0.70935646  0.24209925     0.01200
C261        C  0.90423624  0.72120580  0.18253044    -0.24100
C262        C  0.90670410  0.81507780  0.18788032    -0.28700
C263        C  0.89487529  0.82685709  0.24922470     0.06900
C264        C  0.88264137  0.81512465  0.31007196    -0.27400
H265        H  0.92875953  0.78858652  0.08129256     0.11600
H266        H  0.92767780  0.74766216  0.07895525     0.12700
H267        H  0.85937479  0.78860569  0.41433208     0.11800
H268        H  0.85809661  0.74766872  0.41138464     0.11000
H269        H  0.87004541  0.71206080  0.34970505     0.16400
H270        H  0.91347977  0.71219415  0.13520664     0.12300
H271        H  0.91619403  0.82418271  0.14111520     0.15200
H272        H  0.87344394  0.82427030  0.35716768     0.15000
C273        C  0.61941318  0.78098267  0.17301621    -0.17900
C274        C  0.61917945  0.75759545  0.17467664    -0.20100
C275        C  0.63167972  0.74536835  0.11654299     0.20600
C276        C  0.64433263  0.75685417  0.05545728    -0.03000
C277        C  0.64449890  0.78043144  0.05355689    -0.06100
C278        C  0.63210919  0.79253987  0.11307081     0.20800
C279        C  0.65707447  0.79187365  0.99214616     0.19000
C280        C  0.66960633  0.77967914  0.93409371    -0.17600
C281        C  0.66949482  0.75632533  0.93614159    -0.19800
C282        C  0.65681674  0.74479528  0.99617668     0.20500
C283        C  0.65628319  0.72141256  0.99747973    -0.32800
C284        C  0.64388318  0.70982397  0.05847086     0.01200
C285        C  0.63179488  0.72189001  0.11843188    -0.24100
C286        C  0.63277123  0.81597419  0.11185351    -0.28700
C287        C  0.64494765  0.82739294  0.04994033     0.06900
C288        C  0.65684861  0.81529588  0.98974661    -0.27400
H289        H  0.60985815  0.79003793  0.21925579     0.11600
H290        H  0.60943523  0.74907007  0.22210655     0.12700
H291        H  0.67929829  0.78820419  0.88649770     0.11800
H292        H  0.67909791  0.74727041  0.89002794     0.11000
H293        H  0.66571359  0.71219099  0.95124169     0.16400
H294        H  0.62216067  0.71302190  0.16537203     0.12300
H295        H  0.62356508  0.82536874  0.15823439     0.15200
H296        H  0.66633800  0.82415153  0.94232404     0.15000
C297        C  0.77236616  0.61686587  0.26921372    -0.17900
C298        C  0.74946603  0.61697884  0.25188276    -0.20100
C299        C  0.74094155  0.62992454  0.18575623     0.20600
C300        C  0.75565894  0.64271846  0.13600389    -0.03000
C301        C  0.77877863  0.64257328  0.15339286    -0.06100
C302        C  0.78714276  0.62966654  0.22061019     0.20800
C303        C  0.79350069  0.65535302  0.10359372     0.19000
C304        C  0.78496945  0.66832568  0.03755962    -0.17600
C305        C  0.76206918  0.66843805  0.02022820    -0.19800
C306        C  0.74729556  0.65561130  0.06874140     0.20500
C307        C  0.72435532  0.65526509  0.05066985    -0.32800
C308        C  0.70960418  0.64273498  0.10052727     0.01200
C309        C  0.71797502  0.63029234  0.16846355    -0.24100
C310        C  0.81009207  0.62995574  0.23848331    -0.28700
C311        C  0.82485181  0.64243656  0.18847186     0.06900
C312        C  0.81648103  0.65492195  0.12067791    -0.27400
H313        H  0.77849127  0.60695141  0.32124556     0.11600
H314        H  0.73838377  0.60711372  0.29081260     0.12700
H315        H  0.79605053  0.67819217  0.99863204     0.11800
H316        H  0.75596061  0.67834940  0.30153435     0.11000
H317        H  0.71791943  0.66496882  0.99853553     0.16400
H318        H  0.70662742  0.62057399  0.20693617     0.12300
H319        H  0.81653319  0.62023495  0.29056793     0.15200
H320        H  0.82783915  0.66461456  0.08216593     0.15000
C321        C  0.92602924  0.02631529  0.08676213    -0.17900
C322        C  0.92537965  0.00315465  0.09773758    -0.20100
C323        C  0.91227553  0.99363808  0.16121083     0.20600
C324        C  0.90009650  0.00755360  0.21555538    -0.03000
C325        C  0.90074715  0.03094885  0.20445272    -0.06100
C326        C  0.91359279  0.04030616  0.13913538     0.20800
C327        C  0.88830281  0.04493381  0.25778763     0.19000
C328        C  0.87537972  0.03536693  0.32181150    -0.17600
C329        C  0.87479520  0.01214510  0.33303119    -0.19800
C330        C  0.88706423  0.99808221  0.28022840     0.20500
C331        C  0.88645372  0.97473765  0.29042558    -0.32800
C332        C  0.89801551  0.96089123  0.23463378     0.01200
C333        C  0.91087250  0.97042594  0.17039189    -0.24100
C334        C  0.91337633  0.06344703  0.12601748    -0.28700
C335        C  0.90096460  0.07745185  0.17853106     0.06900
C336        C  0.88879329  0.06818564  0.24532716    -0.27400
H337        H  0.93591088  0.03326329  0.03623046     0.11600
H338        H  0.93479476  0.99265387  0.05552235     0.12700
H339        H  0.86579514  0.04585742  0.36349664     0.11800
H340        H  0.86479534  0.00518682  0.38318995     0.11000
H341        H  0.87648696  0.96732242  0.33983562     0.16400
H342        H  0.91986991  0.95968749  0.12760698     0.12300
H343        H  0.92287124  0.07060895  0.07476991     0.15200
H344        H  0.87916518  0.07900459  0.28576798     0.15000
C345        C  0.86411286  0.50573892  0.36341936    -0.17900
C346        C  0.86384646  0.52905512  0.35872694    -0.20100
C347        C  0.87649610  0.54028523  0.29787928     0.20600
C348        C  0.88909062  0.52793600  0.23969968    -0.03000
C349        C  0.88930518  0.50438031  0.24426059    -0.06100
C350        C  0.87699089  0.49329385  0.30719636     0.20800
C351        C  0.90210755  0.49195568  0.18681850     0.19000
C352        C  0.91452129  0.50322925  0.12530464    -0.17600
C353        C  0.91432013  0.52660705  0.12082203    -0.19800
C354        C  0.90170801  0.53912071  0.17780712     0.20500
C355        C  0.90162444  0.56259546  0.17456391    -0.32800
C356        C  0.88965006  0.57495017  0.23412485     0.01200
C357        C  0.87706501  0.56365767  0.29524533    -0.24100
C358        C  0.87817238  0.46999312  0.31407710    -0.28700
C359        C  0.89092973  0.45754164  0.25737906     0.06900
C360        C  0.90248678  0.46852351  0.19275267    -0.27400
H361        H  0.85460259  0.49745578  0.41211325     0.11600
H362        H  0.85411754  0.53832802  0.40386266     0.12700
H363        H  0.92435389  0.49395947  0.08050054     0.11800
H364        H  0.92399060  0.53490109  0.07262074     0.11000
H365        H  0.91132830  0.57124036  0.12725291     0.16400
H366        H  0.86765098  0.57310141  0.34089875     0.12300
H367        H  0.86914901  0.46148453  0.36363115     0.15200
H368        H  0.91236266  0.45888712  0.14909288     0.15000
C369        C  0.87353435  0.24912022  0.92642389    -0.17900
C370        C  0.87329008  0.27209517  0.90958459    -0.20100
C371        C  0.88587160  0.28685708  0.95871380     0.20600
C372        C  0.89875090  0.27838352  0.02574984    -0.03000
C373        C  0.89901613  0.25521564  0.04266198    -0.06100
C374        C  0.88638676  0.24051590  0.99258149     0.20800
C375        C  0.91179394  0.24679553  0.11004666     0.19000
C376        C  0.92446299  0.26152277  0.15892641    -0.17600
C377        C  0.92422489  0.28446985  0.14208451    -0.19800
C378        C  0.91129355  0.29306165  0.07618039     0.20500
C379        C  0.91056086  0.31609058  0.06025371    -0.32800
C380        C  0.89797818  0.32461238  0.99312967     0.01200
C381        C  0.88585756  0.30991849  0.94197912    -0.24100
C382        C  0.88676397  0.21750325  0.00985794    -0.28700
C383        C  0.89899347  0.20914125  0.07821600     0.06900
C384        C  0.91142134  0.22384710  0.12813221    -0.27400
H385        H  0.86380445  0.23805120  0.88722118     0.11600
H386        H  0.86340523  0.27829809  0.85767019     0.12700
H387        H  0.93429052  0.25533119  0.21101104     0.11800
H388        H  0.93390429  0.29554337  0.18144274     0.11000
H389        H  0.91994308  0.32741908  0.09971156     0.16400
H390        H  0.87603532  0.31649687  0.89046450     0.12300
H391        H  0.87716408  0.20613243  0.97132648     0.15200
H392        H  0.92099103  0.21736258  0.18048476     0.15000
C393        C  0.62557791  0.03463860  0.94787206    -0.17900
C394        C  0.62542401  0.01130174  0.94132314    -0.20100
C395        C  0.63791479  0.99808862  0.99708355     0.20600
C396        C  0.65076168  0.00852107  0.05984533    -0.03000
C397        C  0.65092928  0.03202478  0.06640466    -0.06100
C398        C  0.63825890  0.04517466  0.01018035     0.20800
C399        C  0.66351562  0.04232971  0.13011437     0.19000
C400        C  0.67619554  0.02919810  0.18535294    -0.17600
C401        C  0.67607800  0.00594188  0.17869824    -0.19800
C402        C  0.66322904  0.99546824  0.11686624     0.20500
C403        C  0.66235721  0.97215027  0.11209816    -0.32800
C404        C  0.64954751  0.96159606  0.05011402     0.01200
C405        C  0.63766356  0.97465086  0.99177374    -0.24100
C406        C  0.63827751  0.06856752  0.01817570    -0.28700
C407        C  0.65016922  0.07875191  0.08351553     0.06900
C408        C  0.66280803  0.06555670  0.13882224    -0.27400
H409        H  0.61582693  0.04445319  0.90400232     0.11600
H410        H  0.61557139  0.00358717  0.89249140     0.12700
H411        H  0.68587627  0.03689775  0.23471792     0.11800
H412        H  0.68568903  0.99612271  0.22300232     0.11000
H413        H  0.67168680  0.96217333  0.15684796     0.16400
H414        H  0.62776861  0.96657542  0.94382440     0.12300
H415        H  0.62847095  0.07876315  0.97564334     0.15200
H416        H  0.67208531  0.07343290  0.18897698     0.15000
C417        C  0.78576332  0.16814140  0.00772103    -0.17900
C418        C  0.76244272  0.16884002  0.00936706    -0.20100
C419        C  0.75052379  0.15667327  0.06985354     0.20600
C420        C  0.76218970  0.14388133  0.12996547    -0.03000
C421        C  0.78572591  0.14322470  0.12846015    -0.06100
C422        C  0.79754420  0.15530230  0.06664224     0.20800
C423        C  0.79742109  0.13054493  0.18889932     0.19000
C424        C  0.78549071  0.11830198  0.24913700    -0.17600
C425        C  0.76214902  0.11887396  0.25038030    -0.19800
C426        C  0.75035073  0.13173876  0.19152460     0.20500
C427        C  0.72694540  0.13268380  0.19312559    -0.32800
C428        C  0.71523636  0.14502778  0.13231957     0.01200
C429        C  0.72714290  0.15691409  0.07076929    -0.24100
C430        C  0.82092128  0.15433771  0.06492051    -0.28700
C431        C  0.83259718  0.14226332  0.12633558     0.06900
C432        C  0.82082816  0.13053383  0.18847254    -0.27400
H433        H  0.79458041  0.17745560  0.95978953     0.11600
H434        H  0.75371009  0.17866260  0.96258508     0.12700
H435        H  0.79422598  0.10851960  0.29602560     0.11800
H436        H  0.75333017  0.10949463  0.29812134     0.11000
H437        H  0.71782685  0.12340749  0.24042382     0.16400
H438        H  0.71818438  0.16649292  0.02379764     0.12300
H439        H  0.83008637  0.16347948  0.01734787     0.15200
H440        H  0.82992928  0.12121378  0.23579581     0.15000
C441        C  0.62046680  0.52531862  0.14529570    -0.17900
C442        C  0.62058548  0.50202809  0.13725606    -0.20100
C443        C  0.63323680  0.49178108  0.07437213     0.20600
C444        C  0.64585182  0.50515878  0.01886802    -0.03000
C445        C  0.64571888  0.52863284  0.02692844    -0.06100
C446        C  0.63297631  0.53876879  0.09051061     0.20800
C447        C  0.65818202  0.54195052  0.97084930     0.19000
C448        C  0.67095665  0.53174068  0.24161946    -0.17600
C449        C  0.67104539  0.50850245  0.23350533    -0.19800
C450        C  0.65840171  0.49510976  0.28793440     0.20500
C451        C  0.65773266  0.47188177  0.27808263    -0.32800
C452        C  0.64518883  0.45846615  0.33292717     0.01200
C453        C  0.63331643  0.46843966  0.06531561    -0.24100
C454        C  0.63295856  0.56215172  0.09801371    -0.28700
C455        C  0.64496915  0.57549170  0.04109413     0.06900
C456        C  0.65750002  0.56525537  0.97768964    -0.27400
H457        H  0.61068786  0.53280637  0.19469859     0.11600
H458        H  0.61087026  0.49201816  0.18055244     0.12700
H459        H  0.68057138  0.54175517  0.19800668     0.11800
H460        H  0.68069756  0.50102490  0.18371314     0.11000
H461        H  0.66703307  0.46419136  0.22772430     0.16400
H462        H  0.62361940  0.45809565  0.10764863     0.12300
H463        H  0.62323594  0.56998152  0.14689344     0.15200
H464        H  0.66687668  0.57545984  0.93386794     0.15000
C465        C  0.75707672  0.36394123  0.18258171    -0.17900
C466        C  0.78041474  0.36345353  0.18320281    -0.20100
C467        C  0.79246758  0.37595260  0.24202188     0.20600
C468        C  0.78090347  0.38870059  0.30200207    -0.03000
C469        C  0.75734856  0.38915643  0.30149586    -0.06100
C470        C  0.74540573  0.37691188  0.24084188     0.20800
C471        C  0.74576656  0.40198417  0.02787605     0.19000
C472        C  0.75782692  0.41436165  0.08702324    -0.17600
C473        C  0.78117660  0.41396351  0.08733565    -0.19800
C474        C  0.79286459  0.40114869  0.02860032     0.20500
C475        C  0.81628861  0.40070224  0.02835007    -0.32800
C476        C  0.82789017  0.38855056  0.30065596     0.01200
C477        C  0.81586864  0.37620469  0.24106847    -0.24100
C478        C  0.72202742  0.37804338  0.23902644    -0.28700
C479        C  0.71044961  0.39056464  0.29897357     0.06900
C480        C  0.72234975  0.40224323  0.36059084    -0.27400
H481        H  0.74815890  0.35445524  0.13564031     0.11600
H482        H  0.78905022  0.35361051  0.13668609     0.12700
H483        H  0.74919227  0.42424493  0.13342306     0.11800
H484        H  0.79009834  0.42356367  0.13393049     0.11000
H485        H  0.82550159  0.41031534  0.07419015     0.16400
H486        H  0.82475596  0.36673243  0.19405561     0.12300
H487        H  0.71278561  0.36891856  0.19185806     0.15200
H488        H  0.71336181  0.41191557  0.07340919     0.15000
C489        C  0.62014261  0.27317810  0.33833351    -0.17900
C490        C  0.62086336  0.25021135  0.32261617    -0.20100
C491        C  0.63388496  0.24183654  0.25697430     0.20600
C492        C  0.64617818  0.25674391  0.20618749    -0.03000
C493        C  0.64538340  0.27990799  0.22181981    -0.06100
C494        C  0.63237326  0.28814874  0.28847169     0.20800
C495        C  0.65758476  0.29480747  0.17070036     0.19000
C496        C  0.67070562  0.28643595  0.10536643    -0.17600
C497        C  0.67148129  0.26347799  0.08982868    -0.19800
C498        C  0.65916472  0.24852949  0.13944974     0.20500
C499        C  0.65934500  0.22555508  0.12274399    -0.32800
C500        C  0.64722540  0.21064861  0.17332257     0.01200
C501        C  0.63476245  0.21883786  0.24095671    -0.24100
C502        C  0.63198492  0.31118318  0.30443684    -0.28700
C503        C  0.64383193  0.32606749  0.25285576     0.06900
C504        C  0.65642997  0.31781706  0.18575382    -0.27400
H505        H  0.61017943  0.27921327  0.38998647     0.11600
H506        H  0.61139740  0.23897152  0.36234661     0.12700
H507        H  0.68013959  0.29767916  0.06553203     0.11800
H508        H  0.68145566  0.25744279  0.03820125     0.11000
H509        H  0.66907096  0.21922655  0.07086595     0.16400
H510        H  0.62537266  0.20733301  0.27998098     0.12300
H511        H  0.62223101  0.31757994  0.35611103     0.15200
H512        H  0.66567884  0.32931961  0.14622805     0.15000
C513        C  0.03391500  0.17250988  0.27160483    -0.17900
C514        C  0.01068790  0.17213643  0.26471689    -0.20100
C515        C  0.00031431  0.15918056  0.20300737     0.20600
C516        C  0.01342890  0.14682734  0.14644647    -0.03000
C517        C  0.03689887  0.14723971  0.15328432    -0.06100
C518        C  0.04711305  0.15996210  0.21678328     0.20800
C519        C  0.05011187  0.13473387  0.09738520     0.19000
C520        C  0.03967792  0.12194948  0.03517145    -0.17600
C521        C  0.01637198  0.12155210  0.02834407    -0.19800
C522        C  0.00309597  0.13391197  0.08368786     0.20500
C523        C  0.97969654  0.13355362  0.07771267    -0.32800
C524        C  0.96659020  0.14541140  0.13535077     0.01200
C525        C  0.97703818  0.15817476  0.19765675    -0.24100
C526        C  0.07032787  0.15957222  0.22556404    -0.28700
C527        C  0.08359336  0.14712071  0.17050241     0.06900
C528        C  0.07347425  0.13506747  0.10544455    -0.27400
H529        H  0.04154543  0.18229933  0.32078366     0.11600
H530        H  0.00081788  0.18166766  0.30864918     0.12700
H531        H  0.04954781  0.11232993  0.99153103     0.11800
H532        H  0.00873204  0.11165240  0.97951526     0.11000
H533        H  0.97169007  0.12367675  0.02957484     0.16400
H534        H  0.96700959  0.16746520  0.24190167     0.12300
H535        H  0.07813522  0.16902430  0.27538117     0.15200
H536        H  0.08371782  0.12545128  0.06293459     0.15000
C537        C  0.51419182  0.17301154  0.97490785    -0.17900
C538        C  0.53740038  0.17266904  0.98309902    -0.20100
C539        C  0.54755247  0.15960978  0.04550051     0.20600
C540        C  0.53422778  0.14711598  0.10140426    -0.03000
C541        C  0.51077881  0.14752593  0.09333757    -0.06100
C542        C  0.50078004  0.16035074  0.02915509     0.20800
C543        C  0.49737174  0.13492771  0.14876983     0.19000
C544        C  0.50757106  0.12202664  0.21162601    -0.17600
C545        C  0.53084738  0.12161129  0.21960131    -0.19800
C546        C  0.54432916  0.13408001  0.16481599     0.20500
C547        C  0.56770662  0.13373292  0.17209944    -0.32800
C548        C  0.58104012  0.14576528  0.11525250     0.01200
C549        C  0.57081475  0.15865649  0.05226706    -0.24100
C550        C  0.47757181  0.15996882  0.01927006    -0.28700
C551        C  0.46413629  0.14748971  0.07412794     0.06900
C552        C  0.47404626  0.13531557  0.13972852    -0.27400
H553        H  0.50675897  0.18283310  0.25845567     0.11600
H554        H  0.54744588  0.18225821  0.27285645     0.12700
H555        H  0.49753757  0.11232922  0.25489488     0.11800
H556        H  0.53830158  0.11162004  0.26890487     0.11000
H557        H  0.57552136  0.12377995  0.22078451     0.16400
H558        H  0.58100160  0.16810440  0.00862747     0.12300
H559        H  0.46991125  0.16944024  0.30226800     0.15200
H560        H  0.46365254  0.12566323  0.18200988     0.15000
C561        C  0.29068299  0.12243035  0.18070320    -0.17900
C562        C  0.26769831  0.12248977  0.16544171    -0.20100
C563        C  0.25335842  0.13533153  0.21511557     0.20600
C564        C  0.26223350  0.14815255  0.28118208    -0.03000
C565        C  0.28543990  0.14813397  0.29644565    -0.06100
C566        C  0.29970970  0.13525118  0.24574846     0.20800
C567        C  0.29433081  0.16091664  0.02925146     0.19000
C568        C  0.27998215  0.17381782  0.07874755    -0.17600
C569        C  0.25697304  0.17384524  0.06358655    -0.19800
C570        C  0.24792395  0.16095310  0.99875376     0.20500
C571        C  0.22484323  0.16058014  0.31731116    -0.32800
C572        C  0.21598234  0.14811890  0.25078432     0.01200
C573        C  0.23032586  0.13568391  0.19955334    -0.24100
C574        C  0.32274996  0.13538424  0.26102073    -0.28700
C575        C  0.33166624  0.14771005  0.99445049     0.06900
C576        C  0.31737276  0.16037596  0.04521723    -0.27400
H577        H  0.30143355  0.11251515  0.14106544     0.11600
H578        H  0.26115902  0.11264823  0.11426695     0.12700
H579        H  0.28652294  0.18366201  0.12990875     0.11800
H580        H  0.24621819  0.18373670  0.10328984     0.11000
H581        H  0.21377587  0.17022859  0.02346354     0.16400
H582        H  0.22349051  0.12597968  0.14846602     0.12300
H583        H  0.33373085  0.12557821  0.22178503     0.15200
H584        H  0.32422790  0.17001111  0.09643690     0.15000
C585        C  0.02733862  0.42342907  0.13110685    -0.17900
C586        C  0.00416339  0.42237664  0.14012406    -0.20100
C587        C  0.99459380  0.40919039  0.20336890     0.20600
C588        C  0.00849596  0.39731526  0.25935724    -0.03000
C589        C  0.03190962  0.39836545  0.25021155    -0.06100
C590        C  0.04132001  0.41131971  0.18522917     0.20800
C591        C  0.04586907  0.38626255  0.30535040     0.19000
C592        C  0.03625459  0.37323189  0.03573926    -0.17600
C593        C  0.01303070  0.37226893  0.04506046    -0.19800
C594        C  0.99900352  0.38425174  0.32394669     0.20500
C595        C  0.97567260  0.38341451  0.99937865    -0.32800
C596        C  0.96182329  0.39475270  0.27565158     0.01200
C597        C  0.97136438  0.40749712  0.21101934    -0.24100
C598        C  0.06451535  0.41157701  0.17432545    -0.28700
C599        C  0.07852592  0.39955223  0.22878438     0.06900
C600        C  0.06914900  0.38723607  0.29512717    -0.27400
H601        H  0.03431886  0.43339167  0.08078101     0.11600
H602        H  0.99370442  0.43157439  0.09666078     0.12700
H603        H  0.04671023  0.36389896  0.07879335     0.11800
H604        H  0.00604365  0.36224417  0.09518771     0.11000
H605        H  0.96826780  0.37353175  0.04912932     0.16400
H606        H  0.96064062  0.41630332  0.16721278     0.12300
H607        H  0.07171201  0.42116690  0.12333610     0.15200
H608        H  0.07992656  0.37788303  0.33707081     0.15000
C609        C  0.12002000  0.26165337  0.30244049    -0.17900
C610        C  0.11892950  0.28497231  0.29802859    -0.20100
C611        C  0.13108710  0.29671999  0.23708965     0.20600
C612        C  0.14412236  0.28485854  0.17883025    -0.03000
C613        C  0.14527169  0.26129437  0.18344415    -0.06100
C614        C  0.13330131  0.24968346  0.24602443     0.20800
C615        C  0.15852427  0.24938955  0.12597208     0.19000
C616        C  0.17055458  0.26117230  0.06465600    -0.17600
C617        C  0.16940098  0.28453123  0.06002282    -0.19800
C618        C  0.15622118  0.29654982  0.11670150     0.20500
C619        C  0.15512895  0.32002960  0.11315513    -0.32800
C620        C  0.14282318  0.33188531  0.17307988     0.01200
C621        C  0.13081583  0.32013553  0.23458335    -0.24100
C622        C  0.13497271  0.22633751  0.25167339    -0.28700
C623        C  0.14794529  0.21431091  0.19416291     0.06900
C624        C  0.15950770  0.22594280  0.13090933    -0.27400
H625        H  0.11076489  0.25300002  0.35092683     0.11600
H626        H  0.10888478  0.29385253  0.34329183     0.12700
H627        H  0.18074155  0.25230314  0.01983001     0.11800
H628        H  0.17874704  0.29319430  0.01181679     0.11000
H629        H  0.16452360  0.32910928  0.06608675     0.16400
H630        H  0.12132980  0.32930228  0.28083842     0.12300
H631        H  0.12589853  0.21747399  0.30019048     0.15200
H632        H  0.16953334  0.21676722  0.08636571     0.15000
C633        C  0.50707854  0.36860696  0.09187692    -0.17900
C634        C  0.53032210  0.36778579  0.08618687    -0.20100
C635        C  0.54154755  0.38020589  0.02463863     0.20600
C636        C  0.52924808  0.39319504  0.30026345    -0.03000
C637        C  0.50574082  0.39397927  0.97253161    -0.06100
C638        C  0.49468958  0.38182013  0.03597727     0.20800
C639        C  0.49334001  0.40711804  0.24877635     0.19000
C640        C  0.50462576  0.41935930  0.18673198    -0.17600
C641        C  0.52795886  0.41860405  0.18125685    -0.19800
C642        C  0.54044011  0.40559759  0.23774759     0.20500
C643        C  0.56388424  0.40487115  0.23334005    -0.32800
C644        C  0.57621422  0.39243522  0.29231052     0.01200
C645        C  0.56488227  0.38011203  0.02078097    -0.24100
C646        C  0.47147545  0.38337889  0.04348886    -0.28700
C647        C  0.45899299  0.39637780  0.98702581     0.06900
C648        C  0.46993260  0.40790235  0.25540112    -0.27400
H649        H  0.49881505  0.35921612  0.14097442     0.11600
H650        H  0.53955502  0.35776728  0.13099579     0.12700
H651        H  0.49539699  0.42945603  0.14217662     0.11800
H652        H  0.53623960  0.42813044  0.13258894     0.11000
H653        H  0.57253866  0.41442071  0.18559464     0.16400
H654        H  0.57427288  0.37038071  0.06610163     0.12300
H655        H  0.46303725  0.37433224  0.09316790     0.15200
H656        H  0.46030354  0.41794003  0.21178737     0.15000
C657        C  0.37232494  0.25980506  0.89818453    -0.17900
C658        C  0.37115830  0.28315231  0.89824517    -0.20100
C659        C  0.38318100  0.29556739  0.95738523     0.20600
C660        C  0.39642504  0.28435001  0.01739168    -0.03000
C661        C  0.39757472  0.26081772  0.01742378    -0.06100
C662        C  0.38550950  0.24849461  0.95733048     0.20800
C663        C  0.41061319  0.24962481  0.07811220     0.19000
C664        C  0.42275347  0.26201747  0.13692233    -0.17600
C665        C  0.42168072  0.28534532  0.13667897    -0.19800
C666        C  0.40841645  0.29662856  0.07772897     0.20500
C667        C  0.40680392  0.31996453  0.07849959    -0.32800
C668        C  0.39384235  0.33125082  0.01841948     0.01200
C669        C  0.38223408  0.31898768  0.95753899    -0.24100
C670        C  0.38669138  0.22508741  0.95802379    -0.28700
C671        C  0.39902920  0.21393243  0.02009978     0.06900
C672        C  0.41094495  0.22623234  0.07986996    -0.27400
H673        H  0.36301280  0.25057916  0.18484340     0.11600
H674        H  0.36098470  0.29149489  0.18485551     0.12700
H675        H  0.43279040  0.25365191  0.18397928     0.11800
H676        H  0.43094075  0.29455261  0.18347864     0.11000
H677        H  0.41591350  0.32938866  0.12519355     0.16400
H678        H  0.37222448  0.32766102  0.91111712     0.12300
H679        H  0.37741967  0.21551533  0.91221440     0.15200
H680        H  0.42050111  0.21754183  0.12761462     0.15000
C681        C  0.27414295  0.42362912  0.97393738    -0.17900
C682        C  0.25119896  0.42374206  0.99023847    -0.20100
C683        C  0.24238050  0.41095906  0.05621250     0.20600
C684        C  0.25683845  0.39809764  0.10684140    -0.03000
C685        C  0.27999082  0.39802543  0.09053313    -0.06100
C686        C  0.28866900  0.41077447  0.02348078     0.20800
C687        C  0.29443900  0.38522049  0.14138701     0.19000
C688        C  0.28563002  0.37241071  0.20727181    -0.17600
C689        C  0.26269653  0.37249326  0.22346711    -0.19800
C690        C  0.24818632  0.38536504  0.17395953     0.20500
C691        C  0.22522240  0.38590888  0.19093015    -0.32800
C692        C  0.21071825  0.39850506  0.14023288     0.01200
C693        C  0.21937503  0.41081835  0.07250565    -0.24100
C694        C  0.31168541  0.41034732  0.00697914    -0.28700
C695        C  0.32616557  0.39793025  0.05839940     0.06900
C696        C  0.31745029  0.38552811  0.12572726    -0.27400
H697        H  0.28049939  0.43342969  0.92204465     0.11600
H698        H  0.24031329  0.43365508  0.95063955     0.12700
H699        H  0.29652126  0.36253932  0.24700188     0.11800
H700        H  0.25634357  0.36271026  0.27541337     0.11000
H701        H  0.21858150  0.37630875  0.24291922     0.16400
H702        H  0.20822735  0.42059193  0.03335467     0.12300
H703        H  0.31839754  0.42000821  0.95528045     0.15200
H704        H  0.32859922  0.37589399  0.16537098     0.15000
C705        C  0.12624825  0.00820363  0.33628904    -0.17900
C706        C  0.12651266  0.03162965  0.33870932    -0.20100
C707        C  0.13913112  0.04396115  0.28059814     0.20600
C708        C  0.15168801  0.03250559  0.21970144    -0.03000
C709        C  0.15142172  0.00889380  0.21725871    -0.06100
C710        C  0.13860017  0.99664455  0.27572598     0.20800
C711        C  0.16369939  0.99757835  0.15530979     0.19000
C712        C  0.17658673  0.00981565  0.09796655    -0.17600
C713        C  0.17688304  0.03314910  0.10049359    -0.19800
C714        C  0.16427535  0.04463466  0.16033530     0.20500
C715        C  0.16375659  0.06803916  0.16074421    -0.32800
C716        C  0.15126307  0.07964860  0.22088116     0.01200
C717        C  0.13928143  0.06750123  0.28167741    -0.24100
C718        C  0.13810355  0.97312547  0.27154506    -0.28700
C719        C  0.14960015  0.96190495  0.20762459     0.06900
C720        C  0.16245675  0.97425577  0.15030020    -0.27400
H721        H  0.11639488  0.99912087  0.38192611     0.11600
H722        H  0.11687323  0.04010644  0.38621085     0.12700
H723        H  0.18607227  0.00134910  0.04998180     0.11800
H724        H  0.18661190  0.04223289  0.05446141     0.11000
H725        H  0.17315287  0.07727147  0.11406911     0.16400
H726        H  0.12961031  0.07634838  0.32819486     0.12300
H727        H  0.12815020  0.96363947  0.31577895     0.15200
H728        H  0.17146023  0.96563985  0.10129563     0.15000
C729        C  0.02927695  0.91973106  0.07958059    -0.17900
C730        C  0.00599160  0.91925261  0.08582307    -0.20100
C731        C  0.99555455  0.90635888  0.14803074     0.20600
C732        C  0.00870449  0.89396068  0.20499988    -0.03000
C733        C  0.03217325  0.89443501  0.19867814    -0.06100
C734        C  0.04250567  0.90733701  0.13549432     0.20800
C735        C  0.04528061  0.88203783  0.25570685     0.19000
C736        C  0.03486600  0.86909196  0.31778276    -0.17600
C737        C  0.01161303  0.86868889  0.32426001    -0.19800
C738        C  0.99841743  0.88116639  0.26857716     0.20500
C739        C  0.97513205  0.88128713  0.27598943    -0.32800
C740        C  0.96197868  0.89340663  0.21899564     0.01200
C741        C  0.97221981  0.90567704  0.15450813    -0.24100
C742        C  0.06586282  0.90753161  0.12917874    -0.28700
C743        C  0.07898404  0.89550477  0.18672699     0.06900
C744        C  0.06857815  0.88288411  0.24998030    -0.27400
H745        H  0.03693527  0.92963373  0.03051399     0.11600
H746        H  0.99613530  0.92881214  0.04149213     0.12700
H747        H  0.04472063  0.85952885  0.36211306     0.11800
H748        H  0.00395735  0.85884512  0.37350862     0.11000
H749        H  0.96719056  0.87176286  0.32556554     0.16400
H750        H  0.96203163  0.91510903  0.11076078     0.12300
H751        H  0.07383861  0.91728926  0.08035301     0.15200
H752        H  0.07863560  0.87346400  0.29419045     0.15000
C753        C  0.12066785  0.51709140  0.10937184    -0.17900
C754        C  0.12024632  0.54026668  0.12155618    -0.20100
C755        C  0.13277633  0.55004679  0.18601262     0.20600
C756        C  0.14588145  0.53628397  0.23864721    -0.03000
C757        C  0.14627955  0.51291660  0.22644878    -0.06100
C758        C  0.13358565  0.50325549  0.16155943     0.20800
C759        C  0.15918446  0.49921567  0.27987263     0.19000
C760        C  0.17189602  0.50896152  0.34378214    -0.17600
C761        C  0.17146598  0.53206814  0.35597814    -0.19800
C762        C  0.15835477  0.54581655  0.30433981     0.20500
C763        C  0.15712003  0.56886097  0.31856297    -0.32800
C764        C  0.14404111  0.58267656  0.26684786     0.01200
C765        C  0.13223385  0.57326456  0.19958967    -0.24100
C766        C  0.13395496  0.47994913  0.15041938    -0.28700
C767        C  0.14632466  0.46617353  0.20498442     0.06900
C768        C  0.15892556  0.47597916  0.26934594    -0.27400
H769        H  0.11092910  0.50999300  0.05893165     0.11600
H770        H  0.11016947  0.55055504  0.08032097     0.12700
H771        H  0.18185414  0.49866231  0.38538835     0.11800
H772        H  0.18107389  0.53914466  0.40682653     0.11000
H773        H  0.16636214  0.57610347  0.37011643     0.16400
H774        H  0.12210340  0.58389217  0.15970001     0.12300
H775        H  0.12418319  0.47249295  0.10074216     0.15200
H776        H  0.16859152  0.46548528  0.31133874     0.15000
C777        C  0.00162699  0.62115946  0.08730532    -0.17900
C778        C  0.02495195  0.62178692  0.09481651    -0.20100
C779        C  0.03783991  0.63472702  0.37266974     0.20600
C780        C  0.02704146  0.64720189  0.30929156    -0.03000
C781        C  0.00355251  0.64656251  0.30169053    -0.06100
C782        C  0.99073326  0.63346772  0.35751925     0.20800
C783        C  0.99294508  0.65879041  0.23731016     0.19000
C784        C  0.00571636  0.67193456  0.18251652    -0.17600
C785        C  0.02891708  0.67261485  0.19018837    -0.19800
C786        C  0.03971861  0.66012642  0.25265749     0.20500
C787        C  0.06301351  0.66011157  0.25840795    -0.32800
C788        C  0.07401255  0.64769773  0.32092070     0.01200
C789        C  0.06131289  0.63527860  0.04560455    -0.24100
C790        C  0.96734615  0.63268809  0.34833703    -0.28700
C791        C  0.95687986  0.64420311  0.28212161     0.06900
C792        C  0.96979599  0.65729282  0.22742429    -0.27400
H793        H  0.99209407  0.61109402  0.13098973     0.11600
H794        H  0.03290128  0.61220832  0.14417014     0.12700
H795        H  0.99779004  0.68135803  0.13266842     0.11800
H796        H  0.03845436  0.68257385  0.14615875     0.11000
H797        H  0.07263983  0.66983858  0.21384456     0.16400
H798        H  0.06967633  0.62566901  0.09395571     0.12300
H799        H  0.95740553  0.62260769  0.39073733     0.15200
H800        H  0.96175458  0.66637154  0.17684635     0.15000
C801        C  0.16742782  0.77575345  0.21424230    -0.17900
C802        C  0.16678890  0.75283352  0.19709572    -0.20100
C803        C  0.15368611  0.74463653  0.13115387     0.20600
C804        C  0.14119269  0.75971229  0.08167413    -0.03000
C805        C  0.14188879  0.78284409  0.09881194    -0.06100
C806        C  0.15502447  0.79089723  0.16559244     0.20800
C807        C  0.12952269  0.79790343  0.04885560     0.19000
C808        C  0.11633708  0.78972027  0.98318192    -0.17600
C809        C  0.11567312  0.76682369  0.96612833    -0.19800
C810        C  0.12815937  0.75171270  0.01454429     0.20500
C811        C  0.12815324  0.72880806  0.99604840    -0.32800
C812        C  0.14051260  0.71370442  0.04514099     0.01200
C813        C  0.15298611  0.72167570  0.11334851    -0.24100
C814        C  0.15545113  0.81391923  0.18263263    -0.28700
C815        C  0.14347310  0.82901748  0.13207557     0.06900
C816        C  0.13065380  0.82088896  0.06508125    -0.27400
H817        H  0.17750457  0.78161859  0.26598399     0.11600
H818        H  0.17642511  0.74148925  0.23586746     0.12700
H819        H  0.10678007  0.80107357  0.94416635     0.11800
H820        H  0.10565845  0.76097041  0.91420102     0.11000
H821        H  0.11845548  0.72268837  0.94363576     0.16400
H822        H  0.16261559  0.71006281  0.15110505     0.12300
H823        H  0.16541783  0.82014100  0.23415292     0.15200
H824        H  0.12133078  0.83247742  0.02612869     0.15000
C825        C  0.37039061  0.01366994  0.20138611    -0.17900
C826        C  0.37049296  0.03686481  0.19130338    -0.20100
C827        C  0.38331268  0.04685607  0.12802775     0.20600
C828        C  0.39585478  0.03337055  0.07329672    -0.03000
C829        C  0.39569841  0.00994837  0.08329486    -0.06100
C830        C  0.38307056  0.00012215  0.14821773     0.20800
C831        C  0.40834030  0.99639837  0.02900302     0.19000
C832        C  0.42105876  0.00642373  0.96542639    -0.17600
C833        C  0.42121394  0.02967811  0.95550118    -0.19800
C834        C  0.40866166  0.04328837  0.00903437     0.20500
C835        C  0.40865490  0.06662092  0.99949800    -0.32800
C836        C  0.39650185  0.08012225  0.05489599     0.01200
C837        C  0.38393613  0.07011606  0.11905762    -0.24100
C838        C  0.38367949  0.97695411  0.15993919    -0.28700
C839        C  0.39621516  0.96339922  0.10625153     0.06900
C840        C  0.40818834  0.97310780  0.03991596    -0.27400
H841        H  0.36068301  0.00634985  0.25164724     0.11600
H842        H  0.36082746  0.04701956  0.23389525     0.12700
H843        H  0.43079055  0.99627004  0.92305588     0.11800
H844        H  0.43103551  0.03701011  0.90559191     0.11000
H845        H  0.41841891  0.07428942  0.95006346     0.16400
H846        H  0.37446731  0.08045796  0.16173154     0.12300
H847        H  0.37430795  0.96940734  0.21073237     0.15200
H848        H  0.41786840  0.96259800  0.99851781     0.15000
C849        C  0.51438010  0.92048230  0.23477942    -0.17900
C850        C  0.53761900  0.92027688  0.22556484    -0.20100
C851        C  0.54763845  0.90750251  0.16252169     0.20600
C852        C  0.53408334  0.89486500  0.10804637    -0.03000
C853        C  0.51067385  0.89506795  0.11734017    -0.06100
C854        C  0.50076188  0.90793255  0.18104504     0.20800
C855        C  0.49719749  0.88250458  0.06246476     0.19000
C856        C  0.50717405  0.86960908  0.99979152    -0.17600
C857        C  0.53034387  0.86945929  0.99041872    -0.19800
C858        C  0.54389287  0.88215730  0.04372728     0.20500
C859        C  0.56705443  0.88262934  0.03289938    -0.32800
C860        C  0.58065372  0.89509125  0.08693188     0.01200
C861        C  0.57092866  0.90722415  0.15250581    -0.24100
C862        C  0.47743195  0.90800728  0.18973865    -0.28700
C863        C  0.46393366  0.89588080  0.13400082     0.06900
C864        C  0.47395989  0.88319994  0.07059013    -0.27400
H865        H  0.50706557  0.93034836  0.28429017     0.11600
H866        H  0.54776661  0.93000380  0.26811380     0.12700
H867        H  0.49702804  0.85999676  0.29032136     0.11800
H868        H  0.53764648  0.85976158  0.27382321     0.11000
H869        H  0.57456335  0.87318679  0.31594185     0.16400
H870        H  0.58143473  0.91684815  0.19424509     0.12300
H871        H  0.46976957  0.91783462  0.23868622     0.15200
H872        H  0.46364543  0.87372155  0.02771177     0.15000
C873        C  0.28413353  0.87142950  0.28138280    -0.17900
C874        C  0.26081132  0.87050005  0.28104005    -0.20100
C875        C  0.24850653  0.88267706  0.22159875     0.20600
C876        C  0.25977962  0.89568265  0.16113653    -0.03000
C877        C  0.28329526  0.89660064  0.16141769    -0.06100
C878        C  0.29551947  0.88452709  0.22221978     0.20800
C879        C  0.29456395  0.90954564  0.10072874     0.19000
C880        C  0.28226635  0.92170871  0.04126914    -0.17600
C881        C  0.25894901  0.92086916  0.04121383    -0.19800
C882        C  0.24756511  0.90782125  0.10052277     0.20500
C883        C  0.22419182  0.90676255  0.10048042    -0.32800
C884        C  0.21288720  0.89430992  0.16188138     0.01200
C885        C  0.22512862  0.88231633  0.22222625    -0.24100
C886        C  0.31889886  0.88571494  0.22250126    -0.28700
C887        C  0.33013352  0.89806593  0.16072355     0.06900
C888        C  0.31793355  0.90986072  0.09990911    -0.27400
H889        H  0.29326059  0.86209462  0.32849880     0.11600
H890        H  0.25238280  0.86050174  0.32802689     0.12700
H891        H  0.29069497  0.93165588  0.99413643     0.11800
H892        H  0.24982193  0.93022733  0.99416456     0.11000
H893        H  0.21477751  0.91610701  0.05410824     0.16400
H894        H  0.21643285  0.87264097  0.26955300     0.12300
H895        H  0.32838889  0.87650512  0.26904132     0.15200
H896        H  0.32668374  0.91939326  0.05230605     0.15000
C897        C  0.36901629  0.51388449  0.13189911    -0.17900
C898        C  0.36909027  0.53724892  0.12716539    -0.20100
C899        C  0.38176021  0.54831243  0.06587465     0.20600
C900        C  0.39440217  0.53570505  0.00849660    -0.03000
C901        C  0.39428866  0.51217583  0.01313458    -0.06100
C902        C  0.38157908  0.50120234  0.07531056     0.20800
C903        C  0.40675435  0.49963799  0.95506244     0.19000
C904        C  0.41956649  0.51065777  0.89420253    -0.17600
C905        C  0.41966978  0.53396466  0.22285160    -0.19800
C906        C  0.40699592  0.54658900  0.27913943     0.20500
C907        C  0.40642080  0.56989956  0.27297083    -0.32800
C908        C  0.39394718  0.58253170  0.32994123     0.01200
C909        C  0.38193994  0.57172456  0.39379166    -0.24100
C910        C  0.38164309  0.47776156  0.07948046    -0.28700
C911        C  0.39353935  0.46530383  0.02020460     0.06900
C912        C  0.40597599  0.47629021  0.95816193    -0.27400
H913        H  0.35924245  0.50573433  0.18015818     0.11600
H914        H  0.35936070  0.54667424  0.17184348     0.12700
H915        H  0.42919080  0.50123313  0.84918913     0.11800
H916        H  0.42937273  0.54211273  0.17436216     0.11000
H917        H  0.41581032  0.57827321  0.22404794     0.16400
H918        H  0.37229449  0.58151297  0.43771390     0.12300
H919        H  0.37200715  0.46919298  0.12720782     0.15200
H920        H  0.41522507  0.46659454  0.91273451     0.15000
C921        C  0.53412118  0.66820991  0.20667954    -0.17900
C922        C  0.51082204  0.66926928  0.19990646    -0.20100
C923        C  0.49718225  0.65727963  0.25565736     0.20600
C924        C  0.50716610  0.64406452  0.31883032    -0.03000
C925        C  0.53064537  0.64290223  0.99206971    -0.06100
C926        C  0.54421785  0.65507921  0.26913555     0.20800
C927        C  0.54052005  0.62982435  0.05575750     0.19000
C928        C  0.52694680  0.61765280  0.11104186    -0.17600
C929        C  0.50371764  0.61880284  0.10457432    -0.19800
C930        C  0.49368888  0.63214444  0.04273531     0.20500
C931        C  0.47042331  0.63398492  0.03785534    -0.32800
C932        C  0.46035441  0.64697238  0.30822828     0.01200
C933        C  0.47376998  0.65829821  0.24970330    -0.24100
C934        C  0.56759104  0.65414186  0.27724153    -0.28700
C935        C  0.57741661  0.64177501  0.00929222     0.06900
C936        C  0.56377498  0.62956541  0.06445692    -0.27400
H937        H  0.54425151  0.67759485  0.16278181     0.11600
H938        H  0.50346761  0.67941783  0.15083720     0.12700
H939        H  0.53429848  0.60758591  0.16037910     0.11800
H940        H  0.49358549  0.60957252  0.14895573     0.11000
H941        H  0.46006853  0.62510150  0.08261113     0.16400
H942        H  0.46599010  0.66830973  0.20109381     0.12300
H943        H  0.57807471  0.66361909  0.23473528     0.15200
H944        H  0.57131274  0.61992369  0.11467250     0.15000
C945        C  0.27999832  0.62386910  0.09550879    -0.17900
C946        C  0.25665989  0.62391885  0.09804065    -0.20100
C947        C  0.24434362  0.63654619  0.03995845     0.20600
C948        C  0.25565141  0.64902995  0.31128235    -0.03000
C949        C  0.27921423  0.64890895  0.30851239    -0.06100
C950        C  0.29142272  0.63641456  0.03476664     0.20800
C951        C  0.29054750  0.66131841  0.24633266     0.19000
C952        C  0.27822612  0.67395326  0.18829356    -0.17600
C953        C  0.25487956  0.67413490  0.19123537    -0.19800
C954        C  0.24343914  0.66163936  0.25213481     0.20500
C955        C  0.22001800  0.66144806  0.25467458    -0.32800
C956        C  0.20862422  0.64928182  0.31692992     0.01200
C957        C  0.22093575  0.63699839  0.04306698    -0.24100
C958        C  0.31481843  0.63683308  0.36622603    -0.28700
C959        C  0.32616535  0.64886333  0.30372045     0.06900
C960        C  0.31397402  0.66083702  0.24329645    -0.27400
H961        H  0.28912570  0.61423772  0.14177963     0.11600
H962        H  0.24824490  0.61431428  0.14617796     0.12700
H963        H  0.28664299  0.68352453  0.14006218     0.11800
H964        H  0.24575674  0.68384035  0.14518405     0.11000
H965        H  0.21065246  0.67096639  0.20868723     0.16400
H966        H  0.21227940  0.62750832  0.09098783     0.12300
H967        H  0.32426107  0.62756846  0.07946555     0.15200
H968        H  0.32275599  0.67019662  0.19531774     0.15000
C969        C  0.36807472  0.75726010  0.12588412    -0.17900
C970        C  0.36862659  0.78025540  0.11030291    -0.20100
C971        C  0.38180838  0.79432420  0.15998464     0.20600
C972        C  0.39433728  0.78520441  0.22675052    -0.03000
C973        C  0.39377476  0.76201124  0.24247852    -0.06100
C974        C  0.38070478  0.74799088  0.19133174     0.20800
C975        C  0.40636164  0.75285051  0.30906527     0.19000
C976        C  0.41949667  0.76694682  0.35883707    -0.17600
C977        C  0.42009478  0.78995191  0.34309922    -0.19800
C978        C  0.40752396  0.79923176  0.27749185     0.20500
C979        C  0.40793050  0.82227865  0.26160655    -0.32800
C980        C  0.39584895  0.83135217  0.19418423     0.01200
C981        C  0.38289266  0.81730892  0.14345923    -0.24100
C982        C  0.38066148  0.72491905  0.20604360    -0.28700
C983        C  0.39298871  0.71574292  0.27262539     0.06900
C984        C  0.40557502  0.72976961  0.32463290    -0.27400
H985        H  0.35801254  0.74667832  0.08596748     0.11600
H986        H  0.35899683  0.78699428  0.05864214     0.12700
H987        H  0.42917181  0.76020233  0.41035954     0.11800
H988        H  0.43023780  0.80052015  0.38276470     0.11000
H989        H  0.41794446  0.83312387  0.30077908     0.16400
H990        H  0.37344377  0.82432966  0.09176755     0.12300
H991        H  0.37090944  0.71405887  0.16597962     0.15200
H992        H  0.41517874  0.72264088  0.37569899     0.15000
O993        O  0.39246882  0.61928995  0.71963067    -0.74500
O994        O  0.39387435  0.68303606  0.69232517    -0.74500
O995        O  0.36124461  0.65151063  0.70560805    -0.74600
O996        O  0.42506208  0.65028836  0.70748814    -0.74600
O997        O  0.42552110  0.64772168  0.56839194    -0.74600
O998        O  0.36132099  0.64698397  0.56720162    -0.74600
O999        O  0.39285773  0.67886527  0.55381320    -0.74500
O1000       O  0.39396283  0.61557028  0.58100098    -0.74600
Ni1001     Ni  0.39315600  0.65124925  0.71122515     1.25400
Ni1002     Ni  0.39341669  0.64713814  0.56265593     1.25400
C1003       C  0.39335670  0.60698322  0.65443339     0.87700
C1004       C  0.39327720  0.69138090  0.61833242     0.87600
C1005       C  0.35077000  0.64916596  0.63638678     0.87600
C1006       C  0.43580544  0.64860347  0.63865205     0.87800
O1007       O  0.39716896  0.92570671  0.39257129    -0.74500
O1008       O  0.39453547  0.86272775  0.43556791    -0.74500
O1009       O  0.36412469  0.89580191  0.41934910    -0.74600
O1010       O  0.42768097  0.89262487  0.40831563    -0.74600
O1011       O  0.43001181  0.90107128  0.54368396    -0.74600
O1012       O  0.36606551  0.89977142  0.55784595    -0.74600
O1013       O  0.39893048  0.86904602  0.57195813    -0.74500
O1014       O  0.39699963  0.93189464  0.53003702    -0.74600
Ni1015     Ni  0.39582778  0.89397999  0.40901866     1.25400
Ni1016     Ni  0.39810298  0.90069720  0.55586259     1.25400
C1017       C  0.39692563  0.93915467  0.45460107     0.87700
C1018       C  0.39652871  0.85553588  0.51081086     0.87600
C1019       C  0.35462753  0.89790857  0.49047088     0.87600
C1020       C  0.43936480  0.89660408  0.47368184     0.87800
O1021       O  0.14160018  0.62119996  0.55965466    -0.74500
O1022       O  0.14027954  0.68371292  0.61406336    -0.74500
O1023       O  0.17298508  0.65335385  0.58525555    -0.74600
O1024       O  0.10920918  0.65188657  0.58792221    -0.74600
O1025       O  0.10945444  0.64321467  0.39020241    -0.74600
O1026       O  0.17371472  0.64452464  0.38741242    -0.74600
O1027       O  0.14129109  0.67512711  0.41646451    -0.74500
O1028       O  0.14243089  0.61287793  0.36229848    -0.74600
Ni1029     Ni  0.14100143  0.65282275  0.58192490     1.25400
Ni1030     Ni  0.14169097  0.64364560  0.39396676     1.25400
C1031       C  0.14249806  0.60675435  0.61907642     0.87700
C1032       C  0.14065729  0.68969621  0.35754758     0.87600
C1033       C  0.18392431  0.64907919  0.65233035     0.87600
C1034       C  0.09876055  0.64748688  0.65581215     0.87800
O1035       O  0.14732390  0.92423749  0.59323683    -0.74500
O1036       O  0.14645456  0.86063351  0.55592291    -0.74500
O1037       O  0.17866083  0.89201837  0.56922583    -0.74600
O1038       O  0.11504519  0.89240017  0.58083289    -0.74600
O1039       O  0.11307405  0.89958344  0.44407656    -0.74600
O1040       O  0.17696677  0.89728754  0.43120894    -0.74600
O1041       O  0.14338820  0.86685350  0.41879614    -0.74500
O1042       O  0.14671377  0.92983659  0.45529587    -0.74600
Ni1043     Ni  0.14691870  0.89214355  0.57977936     1.25400
Ni1044     Ni  0.14495508  0.89859169  0.43246167     1.25400
C1045       C  0.14765719  0.93747094  0.52982118     0.87700
C1046       C  0.14451851  0.85333531  0.48098593     0.87600
C1047       C  0.18831452  0.89446806  0.49845011     0.87600
C1048       C  0.10355044  0.89596021  0.51458024     0.87800
O1049       O  0.42163137  0.39809240  0.26742527    -0.74500
O1050       O  0.35810744  0.39921648  0.30214061    -0.74500
O1051       O  0.39062268  0.43045446  0.28497088    -0.74600
O1052       O  0.38925440  0.36656491  0.28405909    -0.74600
O1053       O  0.39577198  0.36618163  0.42139567    -0.74600
O1054       O  0.39462354  0.43013097  0.42373177    -0.74600
O1055       O  0.36363936  0.39742219  0.43995237    -0.74500
O1056       O  0.42671720  0.39836292  0.40562688    -0.74600
Ni1057     Ni  0.38966931  0.39859883  0.27963934     1.25400
Ni1058     Ni  0.39535499  0.39806744  0.42755027     1.25400
C1059       C  0.43459641  0.39786680  0.33127228     0.87700
C1060       C  0.35046676  0.39823319  0.37695251     0.87600
C1061       C  0.39279327  0.44077735  0.35438822     0.87600
C1062       C  0.39277754  0.35584829  0.35236541     0.87800
O1063       O  0.11642604  0.39818561  0.60917219    -0.74500
O1064       O  0.17947278  0.39664451  0.56598854    -0.74500
O1065       O  0.14929368  0.42943582  0.59546261    -0.74600
O1066       O  0.14659561  0.36575893  0.58073434    -0.74600
O1067       O  0.14134387  0.36827706  0.44289214    -0.74600
O1068       O  0.14157104  0.43250994  0.45950517    -0.74600
O1069       O  0.17282846  0.40081506  0.42957497    -0.74500
O1070       O  0.11001839  0.40035661  0.47197102    -0.74600
Ni1071     Ni  0.14819844  0.39744308  0.59268256     1.25400
Ni1072     Ni  0.14119971  0.40055698  0.44605421     1.25400
C1073       C  0.10284474  0.39935615  0.54729997     0.87700
C1074       C  0.18650998  0.39866200  0.49062897     0.87600
C1075       C  0.14570310  0.44152048  0.53045708     0.87600
C1076       C  0.14364002  0.35650278  0.50966010     0.87800
O1077       O  0.42660724  0.14696597  0.45720957    -0.74500
O1078       O  0.36340904  0.14972966  0.41816886    -0.74500
O1079       O  0.39332780  0.11653147  0.44556400    -0.74600
O1080       O  0.39676576  0.18011700  0.43040956    -0.74600
O1081       O  0.40020678  0.17779483  0.62516232    -0.74600
O1082       O  0.40129962  0.11386202  0.30982710    -0.74600
O1083       O  0.36927996  0.14495154  0.61513944    -0.74500
O1084       O  0.43227296  0.14679420  0.31937553    -0.74600
Ni1085     Ni  0.39480503  0.14841192  0.44280071     1.25400
Ni1086     Ni  0.40098045  0.14574724  0.62909553     1.25400
C1087       C  0.43982667  0.14696867  0.39430153     0.87700
C1088       C  0.35595460  0.14746720  0.34348653     0.87600
C1089       C  0.39709739  0.10468335  0.38065663     0.87600
C1090       C  0.39870550  0.18942557  0.35859169     0.87800
O1091       O  0.12121576  0.14545505  0.45425553    -0.74500
O1092       O  0.18442450  0.14659795  0.49352278    -0.74500
O1093       O  0.15333931  0.11421069  0.48033730    -0.74600
O1094       O  0.15258836  0.17816079  0.46694313    -0.74600
O1095       O  0.14619648  0.17995436  0.60403522    -0.74600
O1096       O  0.14713012  0.11574697  0.61758149    -0.74600
O1097       O  0.17828997  0.14876555  0.63077365    -0.74500
O1098       O  0.11540371  0.14742199  0.59175476    -0.74600
Ni1099     Ni  0.15309363  0.14605326  0.46885981     1.25400
Ni1100     Ni  0.14657267  0.14799462  0.61594391     1.25400
C1101       C  0.10792821  0.14650942  0.51687204     0.87700
C1102       C  0.19172657  0.14786222  0.56869285     0.87600
C1103       C  0.15048197  0.10440086  0.55088751     0.87600
C1104       C  0.14906030  0.18962131  0.53311156     0.87800
O1105       O  0.64292234  0.42078314  0.71564298    -0.74500
O1106       O  0.64310757  0.35750191  0.67721540    -0.74500
O1107       O  0.67505056  0.38923439  0.69921464    -0.74600
O1108       O  0.61123638  0.38897849  0.69421827    -0.74600
O1109       O  0.61168967  0.39623158  0.55736441    -0.74600
O1110       O  0.67578028  0.39401601  0.56078013    -0.74600
O1111       O  0.64311554  0.36375162  0.53956053    -0.74500
O1112       O  0.64490660  0.42667574  0.57803303    -0.74600
Ni1113     Ni  0.64305480  0.38891359  0.70150454     1.25400
Ni1114     Ni  0.64384120  0.39541627  0.55402453     1.25400
C1115       C  0.64423548  0.43412370  0.65290092     0.87700
C1116       C  0.64321365  0.35026691  0.60191628     0.87600
C1117       C  0.68590851  0.39134043  0.63071333     0.87600
C1118       C  0.60090635  0.39261122  0.62535243     0.87800
O1119       O  0.64856391  0.11670988  0.36905106    -0.74500
O1120       O  0.64899190  0.17976311  0.41332458    -0.74500
O1121       O  0.68058091  0.14812364  0.39445285    -0.74600
O1122       O  0.61694646  0.14878004  0.38691581    -0.74600
O1123       O  0.61543349  0.14061281  0.52296529    -0.74600
O1124       O  0.67956459  0.14184427  0.53194896    -0.74600
O1125       O  0.64650675  0.17261680  0.55001833    -0.74500
O1126       O  0.64853791  0.11002100  0.50639717    -0.74600
Ni1127     Ni  0.64879550  0.14856295  0.38602202     1.25400
Ni1128     Ni  0.64745474  0.14102915  0.53274544     1.25400
C1129       C  0.64892738  0.10301721  0.43098377     0.87700
C1130       C  0.64760313  0.18651439  0.48907848     0.87600
C1131       C  0.69060706  0.14503106  0.46424934     0.87600
C1132       C  0.60565949  0.14489976  0.45331466     0.87800
O1133       O  0.89264948  0.42032574  0.53771250    -0.74500
O1134       O  0.89555533  0.35675690  0.57099296    -0.74500
O1135       O  0.86227855  0.38704645  0.55990233    -0.74600
O1136       O  0.92597892  0.39011957  0.54817453    -0.74600
O1137       O  0.92778457  0.39486212  0.35299178    -0.74600
O1138       O  0.86380040  0.39227151  0.36441296    -0.74600
O1139       O  0.89748084  0.36199516  0.37548552    -0.74500
O1140       O  0.89400941  0.42515268  0.34253093    -0.74600
Ni1141     Ni  0.89407522  0.38836238  0.54925468     1.25400
Ni1142     Ni  0.89584123  0.39374072  0.36375183     1.25400
C1143       C  0.89266730  0.43314484  0.60167638     0.87700
C1144       C  0.89697770  0.34896826  0.31228073     0.87600
C1145       C  0.85252030  0.38925500  0.63057335     0.87600
C1146       C  0.93735796  0.39306355  0.61505551     0.87800
O1147       O  0.89950112  0.11552138  0.55529322    -0.74500
O1148       O  0.89889671  0.17837606  0.50673225    -0.74500
O1149       O  0.86728600  0.14622472  0.52956057    -0.74600
O1150       O  0.93100215  0.14764521  0.53309241    -0.74600
O1151       O  0.93196640  0.14039048  0.39650470    -0.74600
O1152       O  0.86791866  0.13921229  0.39263049    -0.74600
O1153       O  0.89924543  0.17106977  0.37007336    -0.74500
O1154       O  0.90065403  0.10844062  0.41854005    -0.74600
Ni1155     Ni  0.89913823  0.14720642  0.53602701     1.25400
Ni1156     Ni  0.89995746  0.13949554  0.38955545     1.25400
C1157       C  0.90031533  0.10165452  0.49460224     0.87700
C1158       C  0.89900477  0.18503696  0.43042152     0.87600
C1159       C  0.85712759  0.14252482  0.46057890     0.87600
C1160       C  0.94200542  0.14436342  0.46568105     0.87800
O1161       O  0.61540900  0.64344075  0.29538436    -0.74500
O1162       O  0.67857955  0.64377476  0.33980885    -0.74500
O1163       O  0.64757507  0.61161633  0.31281183    -0.74600
O1164       O  0.64684136  0.67526732  0.32110219    -0.74600
O1165       O  0.63987503  0.67394884  0.45795132    -0.74600
O1166       O  0.64047627  0.60969642  0.44948225    -0.74600
O1167       O  0.67160801  0.64170702  0.47657505    -0.74500
O1168       O  0.60890807  0.64152207  0.43249260    -0.74600
Ni1169     Ni  0.64730564  0.64355401  0.31239584     1.25400
Ni1170     Ni  0.63997821  0.64170480  0.45903431     1.25400
C1171       C  0.60177595  0.64231362  0.35708847     0.87700
C1172       C  0.68544100  0.64274805  0.41572525     0.87600
C1173       C  0.64426052  0.60012017  0.37937935     0.87600
C1174       C  0.64343736  0.68515429  0.39060969     0.87800
O1175       O  0.91888737  0.64162998  0.66187660    -0.74500
O1176       O  0.85582363  0.64165264  0.61591257    -0.74500
O1177       O  0.88715608  0.60983837  0.63688149    -0.74600
O1178       O  0.88720068  0.67372964  0.64105320    -0.74600
O1179       O  0.89454207  0.67456108  0.50442458    -0.74600
O1180       O  0.89427295  0.61047387  0.50008443    -0.74600
O1181       O  0.86293577  0.64292631  0.47912169    -0.74500
O1182       O  0.92561013  0.64263395  0.52479355    -0.74600
Ni1183     Ni  0.88703713  0.64168399  0.64384845     1.25400
Ni1184     Ni  0.89457333  0.64262043  0.49725158     1.25400
C1185       C  0.93261306  0.64252212  0.60046836     0.87700
C1186       C  0.84903998  0.64233097  0.53988530     0.87600
C1187       C  0.89047466  0.59960822  0.56789423     0.87600
C1188       C  0.89103318  0.68469090  0.57355350     0.87800
O1189       O  0.61824474  0.89623247  0.46971381    -0.74500
O1190       O  0.68130363  0.89223508  0.43152840    -0.74500
O1191       O  0.65185612  0.92608341  0.44993409    -0.74600
O1192       O  0.64769528  0.86237241  0.45184560    -0.74600
O1193       O  0.64414055  0.86258250  0.64628120    -0.74600
O1194       O  0.64383451  0.92674604  0.64708507    -0.74600
O1195       O  0.67540003  0.89492341  0.62741920    -0.74500
O1196       O  0.61247372  0.89435592  0.33210609    -0.74600
Ni1197     Ni  0.64999239  0.89423439  0.45571219     1.25400
Ni1198     Ni  0.64372552  0.89466634  0.64157381     1.25400
C1199       C  0.60497494  0.89537129  0.40693170     0.87700
C1200       C  0.68872451  0.89335237  0.35649061     0.87600
C1201       C  0.64832545  0.93695723  0.38202380     0.87600
C1202       C  0.64559326  0.85197015  0.38256720     0.87800
O1203       O  0.92518810  0.89347742  0.49597900    -0.74500
O1204       O  0.86155053  0.89404771  0.52201331    -0.74500
O1205       O  0.89393499  0.92544583  0.50541832    -0.74600
O1206       O  0.89329319  0.86169253  0.51144553    -0.74600
O1207       O  0.89682592  0.86218477  0.65035196    -0.74600
O1208       O  0.89767779  0.92640104  0.64420805    -0.74600
O1209       O  0.86573951  0.89444663  0.66065727    -0.74500
O1210       O  0.92906341  0.89369915  0.63476495    -0.74600
Ni1211     Ni  0.89328263  0.89361892  0.50380210     1.25400
Ni1212     Ni  0.89748018  0.89425091  0.65247528     1.25400
C1213       C  0.93755781  0.89352128  0.56134588     0.87700
C1214       C  0.85322456  0.89414888  0.59583586     0.87600
C1215       C  0.89628258  0.93641006  0.57329326     0.87600
C1216       C  0.89499291  0.85143451  0.58159618     0.87800
C1217       C  0.78740901  0.86758439  0.41763551    -0.17900
C1218       C  0.76435099  0.86740098  0.43090821    -0.20100
C1219       C  0.75016317  0.88010956  0.37954359     0.20600
C1220       C  0.75925116  0.89290707  0.64671827    -0.03000
C1221       C  0.78251237  0.89309959  0.63336358    -0.06100
C1222       C  0.79663582  0.88052496  0.68626337     0.20800
C1223       C  0.79162943  0.90591312  0.56729011     0.19000
C1224       C  0.77742328  0.91855024  0.51573861    -0.17600
C1225       C  0.75435893  0.91840865  0.52914097    -0.19800
C1226       C  0.74512280  0.90558090  0.59415004     0.20500
C1227       C  0.72202175  0.90526721  0.60773824    -0.32800
C1228       C  0.71295207  0.89301176  0.67474286     0.01200
C1229       C  0.72708703  0.88050964  0.39386817    -0.24100
C1230       C  0.81975019  0.88116205  0.67368342    -0.28700
C1231       C  0.82887821  0.89362922  0.60737306     0.06900
C1232       C  0.81476710  0.90577760  0.55380155    -0.27400
H1233       H  0.79805898  0.85786452  0.45879811     0.11600
H1234       H  0.75764383  0.85757217  0.48210940     0.12700
H1235       H  0.78413236  0.92839233  0.46458774     0.11800
H1236       H  0.74371628  0.92817493  0.48811804     0.11000
H1237       H  0.71111761  0.91494558  0.56729464     0.16400
H1238       H  0.72007647  0.87094926  0.44528554     0.12300
H1239       H  0.83067581  0.87168163  0.38142386     0.15200
H1240       H  0.82185110  0.91546250  0.50286445     0.15000
C1241       C  0.91895493  0.77979254  0.46121940    -0.17900
C1242       C  0.91833124  0.75644173  0.45986241    -0.20100
C1243       C  0.90536123  0.74458735  0.51809328     0.20600
C1244       C  0.89316135  0.75634069  0.57916880    -0.03000
C1245       C  0.89384863  0.77990484  0.58072176    -0.06100
C1246       C  0.90664746  0.79166048  0.52090847     0.20800
C1247       C  0.88167256  0.79169002  0.64184963     0.19000
C1248       C  0.86874540  0.77981660  0.70018095    -0.17600
C1249       C  0.86801356  0.75645026  0.69847635    -0.19800
C1250       C  0.88023440  0.74456475  0.63852762     0.20500
C1251       C  0.87981424  0.72112594  0.63702067    -0.32800
C1252       C  0.89164292  0.70935043  0.57546584     0.01200
C1253       C  0.90427107  0.72120113  0.51595076    -0.24100
C1254       C  0.90673647  0.81507498  0.52133207    -0.28700
C1255       C  0.89488808  0.82685407  0.58262501     0.06900
C1256       C  0.88264277  0.81512007  0.64343707    -0.27400
H1257       H  0.92882252  0.78858497  0.41482472     0.11600
H1258       H  0.92774150  0.74766028  0.41247346     0.12700
H1259       H  0.85935527  0.78859759  0.74762159     0.11800
H1260       H  0.85807797  0.74766065  0.74466000     0.11000
H1261       H  0.87003723  0.71205339  0.68299934     0.16400
H1262       H  0.91352494  0.71219011  0.46865344     0.12300
H1263       H  0.91623575  0.82418088  0.47459505     0.15200
H1264       H  0.87343124  0.82426493  0.69049530     0.15000
C1265       C  0.61942227  0.78097975  0.50635584    -0.17900
C1266       C  0.61919417  0.75759240  0.50801698    -0.20100
C1267       C  0.63170242  0.74536825  0.44989828     0.20600
C1268       C  0.64435958  0.75685683  0.38883275    -0.03000
C1269       C  0.64452066  0.78043420  0.38693337    -0.06100
C1270       C  0.63212079  0.79253989  0.44642588     0.20800
C1271       C  0.65709925  0.79187924  0.32553886     0.19000
C1272       C  0.66963995  0.77968762  0.26750431    -0.17600
C1273       C  0.66953234  0.75633366  0.26954782    -0.19800
C1274       C  0.65685059  0.74480060  0.32956425     0.20500
C1275       C  0.65631783  0.72141747  0.33085339    -0.32800
C1276       C  0.64391174  0.70982647  0.39182104     0.01200
C1277       C  0.63181902  0.72188996  0.45177666    -0.24100
C1278       C  0.63277422  0.81597459  0.44520010    -0.28700
C1279       C  0.64495246  0.82739576  0.38329785     0.06900
C1280       C  0.65686534  0.81530123  0.32313089    -0.27400
H1281       H  0.60985994  0.79003262  0.55257965     0.11600
H1282       H  0.60944706  0.74906507  0.55543005     0.12700
H1283       H  0.67933417  0.78821487  0.21992162     0.11800
H1284       H  0.67914068  0.74728105  0.22344365     0.11000
H1285       H  0.66575133  0.71219802  0.28462305     0.16400
H1286       H  0.62218057  0.71301990  0.49869847     0.12300
H1287       H  0.62356056  0.82536710  0.49156338     0.15200
H1288       H  0.66635747  0.82415935  0.27571918     0.15000
C1289       C  0.77238064  0.61684372  0.60249894    -0.17900
C1290       C  0.74948039  0.61695719  0.58516463    -0.20100
C1291       C  0.74095618  0.62990532  0.51904341     0.20600
C1292       C  0.75567412  0.64270212  0.46930381    -0.03000
C1293       C  0.77879397  0.64255675  0.48669702    -0.06100
C1294       C  0.78715799  0.62964665  0.55390578     0.20800
C1295       C  0.79351617  0.65534040  0.43691245     0.19000
C1296       C  0.78498490  0.66831773  0.37089114    -0.17600
C1297       C  0.76208479  0.66843029  0.35355588    -0.19800
C1298       C  0.74731101  0.65559906  0.40205159     0.20500
C1299       C  0.72437088  0.65525326  0.38397453    -0.32800
C1300       C  0.70961878  0.64272007  0.43381701     0.01200
C1301       C  0.71798939  0.63027366  0.50174588    -0.24100
C1302       C  0.81010757  0.62993609  0.57178283    -0.28700
C1303       C  0.82486772  0.64242075  0.52178432     0.06900
C1304       C  0.81649664  0.65490946  0.45399908    -0.27400
H1305       H  0.77850533  0.60692698  0.65452672     0.11600
H1306       H  0.73839789  0.60709028  0.62408648     0.12700
H1307       H  0.79606583  0.67818772  0.33197610     0.11800
H1308       H  0.75596293  0.67830446  0.63480835     0.11000
H1309       H  0.71793532  0.66496109  0.33184715     0.16400
H1310       H  0.70664130  0.62055388  0.54021128     0.12300
H1311       H  0.81654858  0.62021305  0.62386346     0.15200
H1312       H  0.82785421  0.66460532  0.41549933     0.15000
C1313       C  0.92601468  0.02631717  0.41999513    -0.17900
C1314       C  0.92536409  0.00315636  0.43097199    -0.20100
C1315       C  0.91226249  0.99364016  0.49445357     0.20600
C1316       C  0.90008698  0.00755690  0.54880507    -0.03000
C1317       C  0.90073865  0.03095262  0.53770117    -0.06100
C1318       C  0.91358184  0.04030942  0.47237602     0.20800
C1319       C  0.88829867  0.04493872  0.59104621     0.19000
C1320       C  0.87537811  0.03537234  0.65507848    -0.17600
C1321       C  0.87479263  0.01215042  0.66629957    -0.19800
C1322       C  0.88705818  0.99808632  0.61348935     0.20500
C1323       C  0.88644841  0.97474154  0.62369360    -0.32800
C1324       C  0.89800713  0.96089328  0.56789736     0.01200
C1325       C  0.91085957  0.97042753  0.50364024    -0.24100
C1326       C  0.91336784  0.06345110  0.45926248    -0.28700
C1327       C  0.90096139  0.07745766  0.51178921     0.06900
C1328       C  0.88879178  0.06819105  0.57859014    -0.27400
H1329       H  0.93589477  0.03326441  0.36945781     0.11600
H1330       H  0.93477714  0.99265463  0.38874978     0.12700
H1331       H  0.86579633  0.04586378  0.69677239     0.11800
H1332       H  0.86479525  0.00519293  0.71646710     0.11000
H1333       H  0.87648526  0.96732756  0.67311565     0.16400
H1334       H  0.91985486  0.95968844  0.46085106     0.12300
H1335       H  0.92286184  0.07061249  0.40801028     0.15200
H1336       H  0.87916743  0.07901072  0.61904293     0.15000
C1337       C  0.86412465  0.50572968  0.69674661    -0.17900
C1338       C  0.86386047  0.52904600  0.69205244    -0.20100
C1339       C  0.87651394  0.54027498  0.63121298     0.20600
C1340       C  0.88911007  0.52792454  0.57304227    -0.03000
C1341       C  0.88932280  0.50436848  0.57760614    -0.06100
C1342       C  0.87700463  0.49328317  0.64053427     0.20800
C1343       C  0.90212638  0.49194239  0.52017269     0.19000
C1344       C  0.91454250  0.50321495  0.45866262    -0.17600
C1345       C  0.91434257  0.52659297  0.45417492    -0.19800
C1346       C  0.90172990  0.53910832  0.51115408     0.20500
C1347       C  0.90164730  0.56258367  0.50790746    -0.32800
C1348       C  0.88967127  0.57493975  0.56746175     0.01200
C1349       C  0.87708415  0.56364746  0.62857699    -0.24100
C1350       C  0.87818351  0.46998200  0.64741783    -0.28700
C1351       C  0.89094223  0.45752884  0.59072887     0.06900
C1352       C  0.90250341  0.46850979  0.52610930    -0.27400
H1353       H  0.85461131  0.49744784  0.74543315     0.11600
H1354       H  0.85413008  0.53831964  0.73717961     0.12700
H1355       H  0.92437608  0.49394383  0.41386210     0.11800
H1356       H  0.92401445  0.53488581  0.40597576     0.11000
H1357       H  0.91135263  0.57122782  0.46059920     0.16400
H1358       H  0.86766818  0.57309201  0.67422642     0.12300
H1359       H  0.86915708  0.46147475  0.69696426     0.15200
H1360       H  0.91237976  0.45887268  0.48245699     0.15000
C1361       C  0.87353611  0.24914208  0.25984120    -0.17900
C1362       C  0.87328781  0.27211764  0.24301361    -0.20100
C1363       C  0.88587024  0.28687947  0.29214010     0.20600
C1364       C  0.89875346  0.27840532  0.35916453    -0.03000
C1365       C  0.89902301  0.25523647  0.37606384    -0.06100
C1366       C  0.88639383  0.24053680  0.32598259     0.20800
C1367       C  0.91180559  0.24681518  0.44343377     0.19000
C1368       C  0.92447397  0.26154289  0.49231471    -0.17600
C1369       C  0.92423197  0.28449085  0.47548485    -0.19800
C1370       C  0.91129677  0.29308358  0.40959245     0.20500
C1371       C  0.91056176  0.31611320  0.39367171    -0.32800
C1372       C  0.89797656  0.32463531  0.32655369     0.01200
C1373       C  0.88585432  0.30994113  0.27540994    -0.24100
C1374       C  0.88677691  0.21752306  0.34323969    -0.28700
C1375       C  0.89901210  0.20915885  0.41158031     0.06900
C1376       C  0.91143892  0.22386502  0.46150135    -0.27400
H1377       H  0.86380584  0.23807325  0.22063905     0.11600
H1378       H  0.86340007  0.27832084  0.19110975     0.12700
H1379       H  0.93430517  0.25535069  0.54438991     0.11800
H1380       H  0.93391181  0.29556418  0.51484197     0.11000
H1381       H  0.91994538  0.32744176  0.43312491     0.16400
H1382       H  0.87602984  0.31651970  0.22389835     0.12300
H1383       H  0.87717700  0.20615291  0.30470656     0.15200
H1384       H  0.92101195  0.21737975  0.51384236     0.15000
C1385       C  0.62560673  0.03464124  0.28120940    -0.17900
C1386       C  0.62545159  0.01130457  0.27465920    -0.20100
C1387       C  0.63794024  0.99809079  0.33042389     0.20600
C1388       C  0.65078479  0.00852211  0.39319502    -0.03000
C1389       C  0.65095414  0.03202570  0.39975367    -0.06100
C1390       C  0.63828712  0.04517629  0.34352113     0.20800
C1391       C  0.66353789  0.04232980  0.46347262     0.19000
C1392       C  0.67621212  0.02919710  0.51872634    -0.17600
C1393       C  0.67609244  0.00594082  0.51207319    -0.19800
C1394       C  0.66324745  0.99546824  0.45022711     0.20500
C1395       C  0.66237457  0.97215043  0.44545517    -0.32800
C1396       C  0.64956868  0.96159754  0.38345661     0.01200
C1397       C  0.63768848  0.97465337  0.32510979    -0.24100
C1398       C  0.63830721  0.06856892  0.35151443    -0.28700
C1399       C  0.65019663  0.07875267  0.41686061     0.06900
C1400       C  0.66283219  0.06555702  0.47217667    -0.27400
H1401       H  0.61585744  0.04445664  0.23733520     0.11600
H1402       H  0.61560034  0.00359094  0.22582429     0.12700
H1403       H  0.68588995  0.03689594  0.56810022     0.11800
H1404       H  0.68569937  0.99612058  0.55638878     0.11000
H1405       H  0.67170060  0.96217236  0.49021434     0.16400
H1406       H  0.62779541  0.96657880  0.27715159     0.12300
H1407       H  0.62850255  0.07876482  0.30897758     0.15200
H1408       H  0.67210702  0.07343283  0.52233826     0.15000
C1409       C  0.78577201  0.16814354  0.34101944    -0.17900
C1410       C  0.76245145  0.16883973  0.34267093    -0.20100
C1411       C  0.75053534  0.15668249  0.40319192     0.20600
C1412       C  0.76220383  0.14390283  0.46333249    -0.03000
C1413       C  0.78573994  0.14324922  0.46182305    -0.06100
C1414       C  0.79755555  0.15531681  0.39997038     0.20800
C1415       C  0.79743758  0.13058083  0.52228807     0.19000
C1416       C  0.78551008  0.11834475  0.58255304    -0.17600
C1417       C  0.76216845  0.11891361  0.58379958    -0.19800
C1418       C  0.75036751  0.13176817  0.52492084     0.20500
C1419       C  0.72696209  0.13270949  0.52652283    -0.32800
C1420       C  0.71525051  0.14504165  0.46569054     0.01200
C1421       C  0.72715466  0.15691998  0.40411197    -0.24100
C1422       C  0.82093258  0.15435374  0.39824212    -0.28700
C1423       C  0.83261065  0.14229048  0.45968186     0.06900
C1424       C  0.82084423  0.13057154  0.52185268    -0.27400
H1425       H  0.79458705  0.17744984  0.29306016     0.11600
H1426       H  0.75371664  0.17865245  0.29586625     0.12700
H1427       H  0.79424712  0.10857054  0.62945667     0.11800
H1428       H  0.75335148  0.10953947  0.63156229     0.11000
H1429       H  0.71784542  0.12343869  0.57384297     0.16400
H1430       H  0.71819428  0.16648952  0.35711776     0.12300
H1431       H  0.83009569  0.16348708  0.35064214     0.15200
H1432       H  0.82994734  0.12125903  0.56919378     0.15000
C1433       C  0.62043768  0.52532534  0.47851927    -0.17900
C1434       C  0.62055512  0.50203465  0.47048544    -0.20100
C1435       C  0.63321707  0.49178508  0.40763707     0.20600
C1436       C  0.64584507  0.50516042  0.35216645    -0.03000
C1437       C  0.64571309  0.52863479  0.36022040    -0.06100
C1438       C  0.63295884  0.53877325  0.42376426     0.20800
C1439       C  0.65818933  0.54195025  0.30417464     0.19000
C1440       C  0.67092501  0.53174665  0.57487524    -0.17600
C1441       C  0.67101393  0.50850884  0.56674928    -0.19800
C1442       C  0.65838218  0.49511324  0.62120689     0.20500
C1443       C  0.65771557  0.47188533  0.61135205    -0.32800
C1444       C  0.64518659  0.45846616  0.66623267     0.01200
C1445       C  0.63329569  0.46844330  0.39858603    -0.24100
C1446       C  0.63294263  0.56215621  0.43126277    -0.28700
C1447       C  0.64496604  0.57549410  0.37437518     0.06900
C1448       C  0.65750835  0.56525558  0.31100728    -0.27400
H1449       H  0.61065008  0.53281526  0.52789590     0.11600
H1450       H  0.61083054  0.49202659  0.51375779     0.12700
H1451       H  0.68053067  0.54176327  0.53124243     0.11800
H1452       H  0.68065753  0.50103386  0.51692818     0.11000
H1453       H  0.66700775  0.46419770  0.56096605     0.16400
H1454       H  0.62358933  0.45810117  0.44089293     0.12300
H1455       H  0.62321136  0.56998819  0.48011701     0.15200
H1456       H  0.66689501  0.57545857  0.26721236     0.15000
C1457       C  0.75707854  0.36393044  0.51594309    -0.17900
C1458       C  0.78041669  0.36344362  0.51655732    -0.20100
C1459       C  0.79247029  0.37593861  0.57538673     0.20600
C1460       C  0.78090674  0.38868077  0.63538585    -0.03000
C1461       C  0.75735161  0.38913577  0.63488645    -0.06100
C1462       C  0.74540809  0.37689619  0.57422032     0.20800
C1463       C  0.74576711  0.40199076  0.36122906     0.19000
C1464       C  0.75782464  0.41435597  0.42042017    -0.17600
C1465       C  0.78117438  0.41396021  0.42074044    -0.19800
C1466       C  0.79286518  0.40115974  0.36196894     0.20500
C1467       C  0.81628931  0.40071478  0.36172943    -0.32800
C1468       C  0.82789403  0.38853574  0.63401759     0.01200
C1469       C  0.81587144  0.37619309  0.57442298    -0.24100
C1470       C  0.72202983  0.37802971  0.57240405    -0.28700
C1471       C  0.71045218  0.39054890  0.63235820     0.06900
C1472       C  0.72235307  0.40222077  0.69399223    -0.27400
H1473       H  0.74816038  0.35444854  0.46899264     0.11600
H1474       H  0.78905151  0.35360513  0.47002662     0.12700
H1475       H  0.74918775  0.42422753  0.46684938     0.11800
H1476       H  0.79009357  0.42355008  0.46736854     0.11000
H1477       H  0.82549981  0.41031792  0.40760381     0.16400
H1478       H  0.82475813  0.36672520  0.52739527     0.12300
H1479       H  0.71278755  0.36890942  0.52522169     0.15200
H1480       H  0.71336024  0.41190662  0.40678990     0.15000
C1481       C  0.62011471  0.27317991  0.67160017    -0.17900
C1482       C  0.62083760  0.25021281  0.65588847    -0.20100
C1483       C  0.63387294  0.24183642  0.59028749     0.20600
C1484       C  0.64617854  0.25674246  0.53953733    -0.03000
C1485       C  0.64538161  0.27990675  0.55516313    -0.06100
C1486       C  0.63235708  0.28814922  0.62177276     0.20800
C1487       C  0.65759586  0.29480462  0.50408065     0.19000
C1488       C  0.67073020  0.28643170  0.43878745    -0.17600
C1489       C  0.67150776  0.26347363  0.42325571    -0.19800
C1490       C  0.65917969  0.24852654  0.47284200     0.20500
C1491       C  0.65936188  0.22555212  0.45613866    -0.32800
C1492       C  0.64722938  0.21064716  0.50667901     0.01200
C1493       C  0.63475229  0.21883744  0.57427454    -0.24100
C1494       C  0.63196784  0.31118387  0.63773545    -0.28700
C1495       C  0.64382903  0.32606616  0.58619240     0.06900
C1496       C  0.65644060  0.31781418  0.51912970    -0.27400
H1497       H  0.61014116  0.27921612  0.72322073     0.11600
H1498       H  0.61136240  0.23897400  0.69559174     0.12700
H1499       H  0.68017368  0.29767388  0.39898086     0.11800
H1500       H  0.68149306  0.25743710  0.37165848     0.11000
H1501       H  0.66909858  0.21922248  0.40429240     0.16400
H1502       H  0.62535324  0.20733342  0.61326941     0.12300
H1503       H  0.62220340  0.31758228  0.68937900     0.15200
H1504       H  0.66569960  0.32931542  0.47963313     0.15000
C1505       C  0.03392237  0.17250543  0.60490169    -0.17900
C1506       C  0.01069582  0.17213050  0.59801605    -0.20100
C1507       C  0.00032318  0.15917327  0.53630935     0.20600
C1508       C  0.01343751  0.14681805  0.47975418    -0.03000
C1509       C  0.03690685  0.14723146  0.48659119    -0.06100
C1510       C  0.04712028  0.15995726  0.55008230     0.20800
C1511       C  0.05012008  0.13472450  0.43069625     0.19000
C1512       C  0.03968677  0.12193710  0.36848992    -0.17600
C1513       C  0.01638090  0.12153918  0.36166145    -0.19800
C1514       C  0.00310493  0.13390117  0.41699887     0.20500
C1515       C  0.97970574  0.13354490  0.41101697    -0.32800
C1516       C  0.96660049  0.14540636  0.46864680     0.01200
C1517       C  0.97704794  0.15816943  0.53095285    -0.24100
C1518       C  0.07033452  0.15957091  0.55885656    -0.28700
C1519       C  0.08359984  0.14711849  0.50379936     0.06900
C1520       C  0.07348216  0.13506089  0.43875126    -0.27400
H1521       H  0.04155294  0.18229735  0.65407689     0.11600
H1522       H  0.00082517  0.18166299  0.64194517     0.12700
H1523       H  0.04955697  0.11231657  0.32485384     0.11800
H1524       H  0.00874139  0.11163853  0.31283739     0.11000
H1525       H  0.97169895  0.12366813  0.36288229     0.16400
H1526       H  0.96701959  0.16746210  0.57519083     0.12300
H1527       H  0.07814139  0.16902580  0.60866536     0.15200
H1528       H  0.08372647  0.12544382  0.39624682     0.15000
C1529       C  0.51420392  0.17296303  0.30813787    -0.17900
C1530       C  0.53741257  0.17262048  0.31632531    -0.20100
C1531       C  0.54756474  0.15957383  0.37876313     0.20600
C1532       C  0.53424002  0.14709182  0.43470356    -0.03000
C1533       C  0.51079070  0.14750205  0.42664131    -0.06100
C1534       C  0.50079199  0.16031520  0.36242686     0.20800
C1535       C  0.49738310  0.13491799  0.48211712     0.19000
C1536       C  0.50758284  0.12202825  0.54500513    -0.17600
C1537       C  0.53085947  0.12161256  0.55297624    -0.19800
C1538       C  0.54434157  0.13406963  0.49815423     0.20500
C1539       C  0.56771928  0.13372587  0.50544311    -0.32800
C1540       C  0.58105315  0.14574794  0.44856574     0.01200
C1541       C  0.57082711  0.15862366  0.38553649    -0.24100
C1542       C  0.47758325  0.15993743  0.35255927    -0.28700
C1543       C  0.46414641  0.14747443  0.40746423     0.06900
C1544       C  0.47405681  0.13531005  0.47309066    -0.27400
H1545       H  0.50674616  0.18283031  0.59172363     0.11600
H1546       H  0.54743339  0.18225740  0.60611961     0.12700
H1547       H  0.49754904  0.11234096  0.58830763     0.11800
H1548       H  0.53831360  0.11163156  0.60230835     0.11000
H1549       H  0.57553408  0.12378422  0.55416270     0.16400
H1550       H  0.58101336  0.16806348  0.34187052     0.12300
H1551       H  0.46989940  0.16944066  0.63556351     0.15200
H1552       H  0.46366264  0.12566907  0.51540738     0.15000
C1553       C  0.29067778  0.12243824  0.51405690    -0.17900
C1554       C  0.26769377  0.12250084  0.49878837    -0.20100
C1555       C  0.25335409  0.13533869  0.54847593     0.20600
C1556       C  0.26222793  0.14815226  0.61456481    -0.03000
C1557       C  0.28543341  0.14813068  0.62983528    -0.06100
C1558       C  0.29970327  0.13525215  0.57912319     0.20800
C1559       C  0.29433646  0.16091868  0.36257670     0.19000
C1560       C  0.27998626  0.17381721  0.41207660    -0.17600
C1561       C  0.25697759  0.17384665  0.39690311    -0.19800
C1562       C  0.24793017  0.16095906  0.33205386     0.20500
C1563       C  0.22483813  0.16057894  0.65069750    -0.32800
C1564       C  0.21597927  0.14812515  0.58414787     0.01200
C1565       C  0.23032278  0.13569432  0.53290547    -0.24100
C1566       C  0.32274276  0.13538311  0.59439909    -0.28700
C1567       C  0.33167297  0.14771073  0.32778938     0.06900
C1568       C  0.31737792  0.16037436  0.37855923    -0.27400
H1569       H  0.30142826  0.11252688  0.47440982     0.11600
H1570       H  0.26115494  0.11266501  0.44759678     0.12700
H1571       H  0.28652540  0.18365723  0.46325221     0.11800
H1572       H  0.24622176  0.18373535  0.43661090     0.11000
H1573       H  0.21378122  0.17023155  0.35676521     0.16400
H1574       H  0.22348819  0.12599546  0.48180148     0.12300
H1575       H  0.33372394  0.12558087  0.55515124     0.15200
H1576       H  0.32423138  0.17000478  0.42979412     0.15000
C1577       C  0.02734452  0.42341712  0.46448293    -0.17900
C1578       C  0.00416944  0.42236235  0.47349235    -0.20100
C1579       C  0.99459946  0.40916932  0.53671595     0.20600
C1580       C  0.00850113  0.39728834  0.59268907    -0.03000
C1581       C  0.03191486  0.39834167  0.58355369    -0.06100
C1582       C  0.04132542  0.41130398  0.51859440     0.20800
C1583       C  0.04587436  0.38623565  0.63868330     0.19000
C1584       C  0.03625639  0.37322104  0.36904866    -0.17600
C1585       C  0.01303285  0.37226014  0.37837842    -0.19800
C1586       C  0.99900812  0.38421810  0.65725821     0.20500
C1587       C  0.97567548  0.38342017  0.33274237    -0.32800
C1588       C  0.96182835  0.39472739  0.60898047     0.01200
C1589       C  0.97137014  0.40747680  0.54436448    -0.24100
C1590       C  0.06452068  0.41156652  0.50770359    -0.28700
C1591       C  0.07853146  0.39953895  0.56215193     0.06900
C1592       C  0.06915475  0.38721424  0.62847317    -0.27400
H1593       H  0.03432521  0.43338567  0.41417430     0.11600
H1594       H  0.99371051  0.43156466  0.43003922     0.12700
H1595       H  0.04671218  0.36387897  0.41207679     0.11800
H1596       H  0.00604583  0.36222805  0.42848444     0.11000
H1597       H  0.96827038  0.37352930  0.38247100     0.16400
H1598       H  0.96064678  0.41628877  0.50057159     0.12300
H1599       H  0.07171741  0.42116267  0.45672932     0.15200
H1600       H  0.07993265  0.37785862  0.67040690     0.15000
C1601       C  0.12002170  0.26165569  0.63576665    -0.17900
C1602       C  0.11893064  0.28497422  0.63134640    -0.20100
C1603       C  0.13108358  0.29671995  0.57039005     0.20600
C1604       C  0.14411361  0.28485737  0.51211781    -0.03000
C1605       C  0.14526311  0.26129388  0.51673845    -0.06100
C1606       C  0.13329867  0.24968480  0.57933966     0.20800
C1607       C  0.15851126  0.24938801  0.45925571     0.19000
C1608       C  0.17053666  0.26116879  0.39792139    -0.17600
C1609       C  0.16938351  0.28452737  0.39328352    -0.19800
C1610       C  0.15620855  0.29654704  0.44997381     0.20500
C1611       C  0.15511876  0.32002646  0.44642893    -0.32800
C1612       C  0.14281923  0.33188262  0.50636836     0.01200
C1613       C  0.13081421  0.32013481  0.56788181    -0.24100
C1614       C  0.13497206  0.22633961  0.58499935    -0.28700
C1615       C  0.14794069  0.21431240  0.52747982     0.06900
C1616       C  0.15949657  0.22594212  0.46420479    -0.27400
H1617       H  0.11077126  0.25300368  0.68426736     0.11600
H1618       H  0.10888981  0.29385593  0.67662003     0.12700
H1619       H  0.18072022  0.25229838  0.35308761     0.11800
H1620       H  0.17872663  0.29318949  0.34506578     0.11000
H1621       H  0.16451152  0.32910552  0.39935197     0.16400
H1622       H  0.12133266  0.32930279  0.61414733     0.12300
H1623       H  0.12590262  0.21747719  0.63353232     0.15200
H1624       H  0.16951913  0.21676552  0.41965365     0.15000
C1625       C  0.50707278  0.36857088  0.42509144    -0.17900
C1626       C  0.53031687  0.36775217  0.41941863    -0.20100
C1627       C  0.54154578  0.38018806  0.35792314     0.20600
C1628       C  0.52924937  0.39318950  0.63352137    -0.03000
C1629       C  0.50574115  0.39397532  0.30584154    -0.06100
C1630       C  0.49468626  0.38179725  0.36922778     0.20800
C1631       C  0.49334018  0.40710717  0.58202451     0.19000
C1632       C  0.50462466  0.41933851  0.51994931    -0.17600
C1633       C  0.52795767  0.41858178  0.51446645    -0.19800
C1634       C  0.54044040  0.40558342  0.57097869     0.20500
C1635       C  0.56388496  0.40485819  0.56657275    -0.32800
C1636       C  0.57621578  0.39243200  0.62557039     0.01200
C1637       C  0.56488110  0.38009349  0.35407581    -0.24100
C1638       C  0.47147111  0.38335147  0.37672030    -0.28700
C1639       C  0.45899158  0.39636531  0.32029599     0.06900
C1640       C  0.46993300  0.40789447  0.58866285    -0.27400
H1641       H  0.49880626  0.35916617  0.47414903     0.11600
H1642       H  0.53954757  0.35772188  0.46419784     0.12700
H1643       H  0.49539477  0.42942955  0.47537759     0.11800
H1644       H  0.53623760  0.42810178  0.46577592     0.11000
H1645       H  0.57253891  0.41440234  0.51881040     0.16400
H1646       H  0.57427005  0.37034936  0.39936178     0.12300
H1647       H  0.46302986  0.37429097  0.42635684     0.15200
H1648       H  0.46030273  0.41792641  0.54503240     0.15000
C1649       C  0.37231974  0.25979158  0.23148330    -0.17900
C1650       C  0.37114926  0.28313895  0.23153455    -0.20100
C1651       C  0.38316938  0.29555798  0.29067106     0.20600
C1652       C  0.39641369  0.28434392  0.35068597    -0.03000
C1653       C  0.39756669  0.26081166  0.35072947    -0.06100
C1654       C  0.38550525  0.24848479  0.29063692     0.20800
C1655       C  0.41060583  0.24962260  0.41142615     0.19000
C1656       C  0.42274273  0.26201875  0.47023505    -0.17600
C1657       C  0.42166746  0.28534631  0.46997803    -0.19800
C1658       C  0.40840328  0.29662581  0.41101819     0.20500
C1659       C  0.40678968  0.31996144  0.41177351    -0.32800
C1660       C  0.39382860  0.33124512  0.35168557     0.01200
C1661       C  0.38222098  0.31897880  0.29081095    -0.24100
C1662       C  0.38669253  0.22507761  0.29133667    -0.28700
C1663       C  0.39903196  0.21392653  0.35341901     0.06900
C1664       C  0.41094267  0.22623039  0.41319089    -0.27400
H1665       H  0.36299704  0.25057886  0.51818460     0.11600
H1666       H  0.36097553  0.29149478  0.51817774     0.12700
H1667       H  0.43277978  0.25365622  0.51729841     0.11800
H1668       H  0.43092589  0.29455653  0.51677518     0.11000
H1669       H  0.41589897  0.32938787  0.45846426     0.16400
H1670       H  0.37221185  0.32764994  0.24438219     0.12300
H1671       H  0.37742404  0.21550263  0.24552779     0.15200
H1672       H  0.42049965  0.21754285  0.46094331     0.15000
C1673       C  0.27414562  0.42368275  0.30734943    -0.17900
C1674       C  0.25120141  0.42379233  0.32365012    -0.20100
C1675       C  0.24238063  0.41098257  0.38954793     0.20600
C1676       C  0.25683635  0.39809615  0.44009702    -0.03000
C1677       C  0.27998893  0.39802826  0.42379224    -0.06100
C1678       C  0.28866971  0.41080542  0.35681881     0.20800
C1679       C  0.29443476  0.38519915  0.47457040     0.19000
C1680       C  0.28562363  0.37236285  0.54037900    -0.17600
C1681       C  0.26269001  0.37244066  0.55656953    -0.19800
C1682       C  0.24818196  0.38533490  0.50713540     0.20500
C1683       C  0.22521853  0.38587621  0.52411279    -0.32800
C1684       C  0.21071717  0.39849938  0.47350055     0.01200
C1685       C  0.21937518  0.41083977  0.40584470    -0.24100
C1686       C  0.31168631  0.41038088  0.34031489    -0.28700
C1687       C  0.32616351  0.39793783  0.39165868     0.06900
C1688       C  0.31744598  0.38550937  0.45891333    -0.27400
H1689       H  0.28050385  0.43350438  0.25551497     0.11600
H1690       H  0.24031755  0.43372394  0.28411107     0.12700
H1691       H  0.29651334  0.36247340  0.58005244     0.11800
H1692       H  0.25633522  0.36263657  0.60845807     0.11000
H1693       H  0.21857586  0.37625532  0.57604506     0.16400
H1694       H  0.20822868  0.42063312  0.36675785     0.12300
H1695       H  0.31840091  0.42006211  0.28867318     0.15200
H1696       H  0.32859340  0.37585612  0.49849901     0.15000
C1697       C  0.12625908  0.00820762  0.66956031    -0.17900
C1698       C  0.12652235  0.03163325  0.67199048    -0.20100
C1699       C  0.13914250  0.04396647  0.61389037     0.20600
C1700       C  0.15170187  0.03251345  0.55299386    -0.03000
C1701       C  0.15143661  0.00890211  0.55054108    -0.06100
C1702       C  0.13861359  0.99665117  0.60899852     0.20800
C1703       C  0.16371608  0.99758881  0.48859114     0.19000
C1704       C  0.17660409  0.00982815  0.43125583    -0.17600
C1705       C  0.17689943  0.03316157  0.43379295    -0.19800
C1706       C  0.16429006  0.04464465  0.49363661     0.20500
C1707       C  0.16376971  0.06804879  0.49405548    -0.32800
C1708       C  0.15127358  0.07965521  0.55419265     0.01200
C1709       C  0.13929129  0.06750600  0.61497984    -0.24100
C1710       C  0.13811773  0.97313288  0.60480874    -0.28700
C1711       C  0.14961578  0.96191459  0.54088842     0.06900
C1712       C  0.16247364  0.97426643  0.48357166    -0.27400
H1713       H  0.11640446  0.99912309  0.71518911     0.11600
H1714       H  0.11688118  0.04010810  0.71948941     0.12700
H1715       H  0.18609057  0.00136348  0.38327067     0.11800
H1716       H  0.18662861  0.04224711  0.38776749     0.11000
H1717       H  0.17316649  0.07728332  0.44738610     0.16400
H1718       H  0.12961818  0.07635119  0.66149569     0.12300
H1719       H  0.12816300  0.96364537  0.64903587     0.15200
H1720       H  0.17147784  0.96565146  0.43456511     0.15000
C1721       C  0.02926952  0.91977318  0.41294960    -0.17900
C1722       C  0.00598413  0.91928980  0.41919605    -0.20100
C1723       C  0.99554975  0.90638202  0.48136975     0.20600
C1724       C  0.00870239  0.89397361  0.53829885    -0.03000
C1725       C  0.03217121  0.89445352  0.53197528    -0.06100
C1726       C  0.04250110  0.90737050  0.46882770     0.20800
C1727       C  0.04528115  0.88204617  0.58896414     0.19000
C1728       C  0.03486924  0.86908439  0.65100063    -0.17600
C1729       C  0.01161630  0.86867551  0.65747882    -0.19800
C1730       C  0.99841792  0.88116330  0.60183771     0.20500
C1731       C  0.97513246  0.88127951  0.60925732    -0.32800
C1732       C  0.96197665  0.89341033  0.55230558     0.01200
C1733       C  0.97221511  0.90569558  0.48785152    -0.24100
C1734       C  0.06585853  0.90756950  0.46250702    -0.28700
C1735       C  0.07898221  0.89553207  0.52001656     0.06900
C1736       C  0.06857859  0.88289740  0.58323672    -0.27400
H1737       H  0.03692531  0.92968627  0.36391037     0.11600
H1738       H  0.99612569  0.92885667  0.37489344     0.12700
H1739       H  0.04472579  0.85951322  0.69529900     0.11800
H1740       H  0.00396271  0.85881921  0.70669831     0.11000
H1741       H  0.96719282  0.87174382  0.65880657     0.16400
H1742       H  0.96202461  0.91513577  0.44413508     0.12300
H1743       H  0.07383263  0.91733746  0.41370583     0.15200
H1744       H  0.07863767  0.87346903  0.62741458     0.15000
C1745       C  0.12063253  0.51707800  0.44285847    -0.17900
C1746       C  0.12021430  0.54025323  0.45504000    -0.20100
C1747       C  0.13276294  0.55003406  0.51944373     0.20600
C1748       C  0.14588460  0.53627259  0.57202532    -0.03000
C1749       C  0.14628003  0.51290542  0.55982789    -0.06100
C1750       C  0.13356655  0.50324348  0.49499398     0.20800
C1751       C  0.15920252  0.49920560  0.61319606     0.19000
C1752       C  0.17193221  0.50895238  0.67705311    -0.17600
C1753       C  0.17150414  0.53205902  0.68925054    -0.19800
C1754       C  0.15837725  0.54580637  0.63766431     0.20500
C1755       C  0.15714471  0.56885071  0.65189141    -0.32800
C1756       C  0.14404911  0.58266424  0.60022902     0.01200
C1757       C  0.13222332  0.57325144  0.53301988    -0.24100
C1758       C  0.13393500  0.47993778  0.48384933    -0.28700
C1759       C  0.14632417  0.46616373  0.53835520     0.06900
C1760       C  0.15894311  0.47596927  0.60266650    -0.27400
H1761       H  0.11087926  0.50997877  0.39246068     0.11600
H1762       H  0.11012516  0.55054069  0.41384593     0.12700
H1763       H  0.18190350  0.49865385  0.71861779     0.11800
H1764       H  0.18112646  0.53913643  0.74005896     0.11000
H1765       H  0.16640075  0.57609474  0.70340708     0.16400
H1766       H  0.12208071  0.58387859  0.49316927     0.12300
H1767       H  0.12414905  0.47248083  0.43421331     0.15200
H1768       H  0.16862312  0.46547570  0.64461366     0.15000
C1769       C  0.00161604  0.62118828  0.42059160    -0.17900
C1770       C  0.02494074  0.62181480  0.42811122    -0.20100
C1771       C  0.03785299  0.63471299  0.70605700     0.20600
C1772       C  0.02705489  0.64719310  0.64269218    -0.03000
C1773       C  0.00356603  0.64655460  0.63508864    -0.06100
C1774       C  0.99074620  0.63345510  0.69090001     0.20800
C1775       C  0.99295924  0.65878810  0.57072147     0.19000
C1776       C  0.00573086  0.67193660  0.51594409    -0.17600
C1777       C  0.02893144  0.67261582  0.52361777    -0.19800
C1778       C  0.03973234  0.66012204  0.58607320     0.20500
C1779       C  0.06302707  0.66010640  0.59182341    -0.32800
C1780       C  0.07402579  0.64768729  0.65432167     0.01200
C1781       C  0.06130385  0.63529986  0.37889670    -0.24100
C1782       C  0.96735913  0.63267600  0.68171166    -0.28700
C1783       C  0.95689383  0.64419651  0.61550671     0.06900
C1784       C  0.96981053  0.65729127  0.56082956    -0.27400
H1785       H  0.99208112  0.61112704  0.46428468     0.11600
H1786       H  0.03288803  0.61223996  0.47747954     0.12700
H1787       H  0.99780493  0.68136416  0.46610594     0.11800
H1788       H  0.03846894  0.68257814  0.47960063     0.11000
H1789       H  0.07265332  0.66983663  0.54727225     0.16400
H1790       H  0.06966549  0.62569424  0.42726525     0.12300
H1791       H  0.95741772  0.62259168  0.72409775     0.15200
H1792       H  0.96176962  0.66637424  0.51025941     0.15000
C1793       C  0.16742248  0.77577326  0.54747334    -0.17900
C1794       C  0.16678361  0.75285353  0.53033078    -0.20100
C1795       C  0.15367186  0.74465497  0.46441753     0.20600
C1796       C  0.14116861  0.75972842  0.41496303    -0.03000
C1797       C  0.14186460  0.78286004  0.43209672    -0.06100
C1798       C  0.15500989  0.79091475  0.49884797     0.20800
C1799       C  0.12949022  0.79791779  0.38216225     0.19000
C1800       C  0.11629682  0.78973293  0.31651323    -0.17600
C1801       C  0.11563284  0.76683607  0.29946388    -0.19800
C1802       C  0.12812702  0.75172682  0.34785871     0.20500
C1803       C  0.12812270  0.72882222  0.32936201    -0.32800
C1804       C  0.14049297  0.71372179  0.37842903     0.01200
C1805       C  0.15297366  0.72169471  0.44661344    -0.24100
C1806       C  0.15543752  0.81393627  0.51588319    -0.28700
C1807       C  0.14345153  0.82903268  0.46534796     0.06900
C1808       C  0.13062250  0.82090351  0.39838156    -0.27400
H1809       H  0.17750670  0.78164010  0.59919206     0.11600
H1810       H  0.17642750  0.74151064  0.56908194     0.12700
H1811       H  0.10673397  0.80108500  0.27751378     0.11800
H1812       H  0.10561213  0.76098120  0.24755445     0.11000
H1813       H  0.11841948  0.72270040  0.27696827     0.16400
H1814       H  0.16261034  0.71008367  0.48435021     0.12300
H1815       H  0.16541207  0.82015943  0.56738055     0.15200
H1816       H  0.12129394  0.83249153  0.35944557     0.15000
C1817       C  0.37040697  0.01367208  0.53483913    -0.17900
C1818       C  0.37051034  0.03686666  0.52474703    -0.20100
C1819       C  0.38332831  0.04685526  0.46146067     0.20600
C1820       C  0.39586820  0.03336759  0.40673036    -0.03000
C1821       C  0.39571060  0.00994582  0.41673752    -0.06100
C1822       C  0.38308408  0.00012208  0.48166943     0.20800
C1823       C  0.40834833  0.99639355  0.36244035     0.19000
C1824       C  0.42106517  0.00641627  0.29885355    -0.17600
C1825       C  0.42122199  0.02967028  0.28892054    -0.19800
C1826       C  0.40867255  0.04328277  0.34245488     0.20500
C1827       C  0.40866450  0.06661475  0.33290288    -0.32800
C1828       C  0.39651239  0.08011808  0.38829631     0.01200
C1829       C  0.38395065  0.07011470  0.45247488    -0.24100
C1830       C  0.38368964  0.97695396  0.49339307    -0.28700
C1831       C  0.39622008  0.96339689  0.43969592     0.06900
C1832       C  0.40819276  0.97310332  0.37335504    -0.27400
H1833       H  0.36070011  0.00635401  0.58510560     0.11600
H1834       H  0.36084657  0.04702304  0.56733760     0.12700
H1835       H  0.43079417  0.99626040  0.25647860     0.11800
H1836       H  0.43104171  0.03700044  0.23900057     0.11000
H1837       H  0.41842616  0.07428145  0.28345575     0.16400
H1838       H  0.37448319  0.08045819  0.49514687     0.12300
H1839       H  0.37431897  0.96940913  0.54418949     0.15200
H1840       H  0.41786925  0.96259160  0.33195007     0.15000
C1841       C  0.51439271  0.92046085  0.56828416    -0.17900
C1842       C  0.53763157  0.92025817  0.55905434    -0.20100
C1843       C  0.54764843  0.90750548  0.49594315     0.20600
C1844       C  0.53409025  0.89488916  0.44140987    -0.03000
C1845       C  0.51068105  0.89508886  0.45072026    -0.06100
C1846       C  0.50077162  0.90792976  0.51449786     0.20800
C1847       C  0.49720252  0.88254445  0.39579237     0.19000
C1848       C  0.50717602  0.86967089  0.33304976    -0.17600
C1849       C  0.53034512  0.86952440  0.32366092    -0.19800
C1850       C  0.54389650  0.88220383  0.37702219     0.20500
C1851       C  0.56705760  0.88267572  0.36619009    -0.32800
C1852       C  0.58066100  0.89511405  0.42028467     0.01200
C1853       C  0.57093892  0.90722660  0.48591972    -0.24100
C1854       C  0.47744146  0.90799989  0.52320990    -0.28700
C1855       C  0.46394096  0.89589189  0.46742068     0.06900
C1856       C  0.47396567  0.88323483  0.40393943    -0.27400
H1857       H  0.50708065  0.93030909  0.61784901     0.11600
H1858       H  0.54778118  0.92996922  0.60164728     0.12700
H1859       H  0.49702147  0.85996908  0.62376636     0.11800
H1860       H  0.53763981  0.85973106  0.60726689     0.11000
H1861       H  0.57455668  0.87316493  0.64935273     0.16400
H1862       H  0.58144747  0.91683311  0.52770707     0.12300
H1863       H  0.46978123  0.91780875  0.57221065     0.15200
H1864       H  0.46365052  0.87377049  0.36101985     0.15000
C1865       C  0.28412590  0.87140682  0.61469005    -0.17900
C1866       C  0.26080337  0.87047747  0.61432185    -0.20100
C1867       C  0.24850288  0.88265395  0.55486545     0.20600
C1868       C  0.25978095  0.89565788  0.49441171    -0.03000
C1869       C  0.28329696  0.89657593  0.49471927    -0.06100
C1870       C  0.29551687  0.88450407  0.55553879     0.20800
C1871       C  0.29457020  0.90952161  0.43404483     0.19000
C1872       C  0.28227705  0.92168426  0.37457134    -0.17600
C1873       C  0.25895972  0.92084496  0.37449062    -0.19800
C1874       C  0.24757096  0.90779728  0.43378693     0.20500
C1875       C  0.22419721  0.90674230  0.43372792    -0.32800
C1876       C  0.21288722  0.89429346  0.49512586     0.01200
C1877       C  0.22512449  0.88229693  0.55547623    -0.24100
C1878       C  0.31889677  0.88569501  0.55585332    -0.28700
C1879       C  0.33013618  0.89804813  0.49409210     0.06900
C1880       C  0.31793986  0.90983994  0.43325862    -0.27400
H1881       H  0.29324925  0.86207311  0.66182004     0.11600
H1882       H  0.25237118  0.86048060  0.66130321     0.12700
H1883       H  0.29070939  0.93163242  0.32744930     0.11800
H1884       H  0.24983635  0.93020411  0.32743383     0.11000
H1885       H  0.21478669  0.91608895  0.38735080     0.16400
H1886       H  0.21642483  0.87262408  0.60280191     0.12300
H1887       H  0.32838339  0.87648689  0.60240679     0.15200
H1888       H  0.32669324  0.91937383  0.38566614     0.15000
C1889       C  0.36904203  0.51387802  0.46523788    -0.17900
C1890       C  0.36911466  0.53724250  0.46050874    -0.20100
C1891       C  0.38177200  0.54830725  0.39918462     0.20600
C1892       C  0.39440172  0.53570083  0.34176564    -0.03000
C1893       C  0.39429009  0.51217158  0.34640045    -0.06100
C1894       C  0.38159413  0.50119697  0.40861241     0.20800
C1895       C  0.40674431  0.49963486  0.28829045     0.19000
C1896       C  0.41954300  0.51065578  0.22739389    -0.17600
C1897       C  0.41968686  0.53396021  0.55618887    -0.19800
C1898       C  0.40701687  0.54658593  0.61248477     0.20500
C1899       C  0.40644233  0.56989666  0.60631324    -0.32800
C1900       C  0.39397100  0.58252952  0.66328866     0.01200
C1901       C  0.38196694  0.57172314  0.72714896    -0.24100
C1902       C  0.38166049  0.47775620  0.41278019    -0.28700
C1903       C  0.39354545  0.46529939  0.35346956     0.06900
C1904       C  0.40596850  0.47628697  0.29139095    -0.27400
H1905       H  0.35927829  0.50572692  0.51352343     0.11600
H1906       H  0.35939391  0.54666718  0.50521826     0.12700
H1907       H  0.42915851  0.50123198  0.18235081     0.11800
H1908       H  0.42938834  0.54210721  0.50769367     0.11000
H1909       H  0.41582968  0.57826987  0.55738179     0.16400
H1910       H  0.37232307  0.58151216  0.77107570     0.12300
H1911       H  0.37203450  0.46918687  0.46053420     0.15200
H1912       H  0.41520844  0.46659260  0.24593669     0.15000
C1913       C  0.53412256  0.66825393  0.54009477    -0.17900
C1914       C  0.51082346  0.66931555  0.53332839    -0.20100
C1915       C  0.49718426  0.65731330  0.58904347     0.20600
C1916       C  0.50716828  0.64408226  0.65216966    -0.03000
C1917       C  0.53064933  0.64291778  0.32540938    -0.06100
C1918       C  0.54421905  0.65510807  0.60250677     0.20800
C1919       C  0.54052469  0.62985644  0.38914274     0.19000
C1920       C  0.52695158  0.61769766  0.44446741    -0.17600
C1921       C  0.50372224  0.61884428  0.43799306    -0.19800
C1922       C  0.49369246  0.63216940  0.37610641     0.20500
C1923       C  0.47042630  0.63400536  0.37121320    -0.32800
C1924       C  0.46035867  0.64699097  0.64158276     0.01200
C1925       C  0.47377233  0.65833273  0.58309601    -0.24100
C1926       C  0.56759184  0.65416786  0.61060846    -0.28700
C1927       C  0.57742279  0.64179322  0.34262841     0.06900
C1928       C  0.56378014  0.62959884  0.39783911    -0.27400
H1929       H  0.54425286  0.67764881  0.49622705     0.11600
H1930       H  0.50346867  0.67947559  0.48429338     0.12700
H1931       H  0.53430353  0.60764307  0.49383871     0.11800
H1932       H  0.49359045  0.60962361  0.48240522     0.11000
H1933       H  0.46007210  0.62513157  0.41600088     0.16400
H1934       H  0.46599126  0.66835523  0.53452070     0.12300
H1935       H  0.57807610  0.66365544  0.56813701     0.15200
H1936       H  0.57131754  0.61996818  0.44808520     0.15000
C1937       C  0.27998986  0.62385962  0.42877114    -0.17900
C1938       C  0.25665142  0.62391455  0.43130908    -0.20100
C1939       C  0.24433691  0.63655595  0.37326413     0.20600
C1940       C  0.25566202  0.64900183  0.64462283    -0.03000
C1941       C  0.27922457  0.64888085  0.64185064    -0.06100
C1942       C  0.29141642  0.63641390  0.36805997     0.20800
C1943       C  0.29055720  0.66129377  0.57967889     0.19000
C1944       C  0.27823572  0.67393163  0.52165022    -0.17600
C1945       C  0.25488944  0.67411410  0.52459636    -0.19800
C1946       C  0.24344965  0.66161552  0.58548843     0.20500
C1947       C  0.22002888  0.66142676  0.58803640    -0.32800
C1948       C  0.20863577  0.64925887  0.65028773     0.01200
C1949       C  0.22092890  0.63701128  0.37637443    -0.24100
C1950       C  0.31482913  0.63680678  0.69956533    -0.28700
C1951       C  0.32617495  0.64884153  0.63706936     0.06900
C1952       C  0.31398341  0.66081494  0.57664639    -0.27400
H1953       H  0.28911584  0.61421634  0.47501276     0.11600
H1954       H  0.24823484  0.61430204  0.47942172     0.12700
H1955       H  0.28665258  0.68350603  0.47342461     0.11800
H1956       H  0.24576649  0.68382269  0.47855629     0.11000
H1957       H  0.21066332  0.67094878  0.54206144     0.16400
H1958       H  0.21227092  0.62751272  0.42426944     0.12300
H1959       H  0.32425395  0.62754827  0.41271931     0.15200
H1960       H  0.32276489  0.67017773  0.52867593     0.15000
C1961       C  0.36806885  0.75726219  0.45932154    -0.17900
C1962       C  0.36862453  0.78025692  0.44373594    -0.20100
C1963       C  0.38181801  0.79432263  0.49338547     0.20600
C1964       C  0.39435720  0.78520015  0.56011936    -0.03000
C1965       C  0.39379179  0.76200730  0.57584969    -0.06100
C1966       C  0.38070723  0.74799051  0.52474110     0.20800
C1967       C  0.40638850  0.75284359  0.64240457     0.19000
C1968       C  0.41953625  0.76693683  0.69214274    -0.17600
C1969       C  0.42013575  0.78994216  0.67640652    -0.19800
C1970       C  0.40755502  0.79922481  0.61083095     0.20500
C1971       C  0.40796074  0.82227202  0.59495210    -0.32800
C1972       C  0.39586775  0.83134789  0.52756345     0.01200
C1973       C  0.38290239  0.81730718  0.47686274    -0.24100
C1974       C  0.38065709  0.72491945  0.53946241    -0.28700
C1975       C  0.39299313  0.71574061  0.60601379     0.06900
C1976       C  0.40559643  0.72976308  0.65798069    -0.27400
H1977       H  0.35799632  0.74668292  0.41943336     0.11600
H1978       H  0.35898677  0.78699826  0.39209713     0.12700
H1979       H  0.42921875  0.76019026  0.74363999     0.11800
H1980       H  0.43028721  0.80050813  0.71604817     0.11000
H1981       H  0.41798198  0.83311622  0.63410584     0.16400
H1982       H  0.37344498  0.82433025  0.42519700     0.12300
H1983       H  0.37089372  0.71406198  0.49942852     0.15200
H1984       H  0.41520744  0.72263174  0.70901846     0.15000
O1985       O  0.39245209  0.61929815  0.05298373    -0.74500
O1986       O  0.39388193  0.68304376  0.02564439    -0.74500
O1987       O  0.36124033  0.65153058  0.03894197    -0.74600
O1988       O  0.42505780  0.65028326  0.04082811    -0.74600
O1989       O  0.42551553  0.64771178  0.90173336    -0.74600
O1990       O  0.36131515  0.64699790  0.90053879    -0.74600
O1991       O  0.39286392  0.67886801  0.88713556    -0.74500
O1992       O  0.39394574  0.61557333  0.91435585    -0.74600
Ni1993     Ni  0.39315164  0.65125733  0.04456165     1.25400
Ni1994     Ni  0.39341102  0.64714063  0.89599514     1.25400
C1995       C  0.39333705  0.60698901  0.98779219     0.87700
C1996       C  0.39328722  0.69138636  0.95164741     0.87600
C1997       C  0.35076476  0.64918524  0.96972278     0.87600
C1998       C  0.43580041  0.64859108  0.97199298     0.87800
O1999       O  0.39716717  0.92571280  0.72589293    -0.74500
O2000       O  0.39453123  0.86273635  0.76891500    -0.74500
O2001       O  0.36412129  0.89581080  0.75267442    -0.74600
O2002       O  0.42767796  0.89263009  0.74166691    -0.74600
O2003       O  0.43000474  0.90108100  0.87703229    -0.74600
O2004       O  0.36605963  0.89978417  0.89116990    -0.74600
O2005       O  0.39892268  0.86905752  0.90530447    -0.74500
O2006       O  0.39699325  0.93190509  0.86335607    -0.74600
Ni2007     Ni  0.39582480  0.89398723  0.74235469     1.25400
Ni2008     Ni  0.39809616  0.90070862  0.88919680     1.25400
C2009       C  0.39692033  0.93916230  0.78791664     0.87700
C2010       C  0.39652315  0.85554594  0.84415995     0.87600
C2011       C  0.35462293  0.89791991  0.82379321     0.87600
C2012       C  0.43935964  0.89660878  0.80703904     0.87800
O2013       O  0.14159219  0.62119911  0.89294608    -0.74500
O2014       O  0.14027461  0.68371029  0.94739351    -0.74500
O2015       O  0.17297816  0.65335069  0.91856318    -0.74600
O2016       O  0.10920211  0.65188617  0.92123699    -0.74600
O2017       O  0.10946861  0.64320301  0.72359441    -0.74600
O2018       O  0.17372839  0.64450850  0.72078529    -0.74600
O2019       O  0.14130839  0.67511436  0.74984229    -0.74500
O2020       O  0.14244294  0.61286436  0.69568272    -0.74600
Ni2021     Ni  0.14099458  0.65282114  0.91523647     1.25400
Ni2022     Ni  0.14170520  0.64363222  0.72734896     1.25400
C2023       C  0.14249140  0.60675080  0.95235822     0.87700
C2024       C  0.14067602  0.68968297  0.69092307     0.87600
C2025       C  0.18391805  0.64907435  0.98563499     0.87600
C2026       C  0.09875418  0.64748361  0.98912593     0.87800
O2027       O  0.14731148  0.92422689  0.92659790    -0.74500
O2028       O  0.14645969  0.86062253  0.88928768    -0.74500
O2029       O  0.17865641  0.89201665  0.90259888    -0.74600
O2030       O  0.11504042  0.89238152  0.91418355    -0.74600
O2031       O  0.11307142  0.89956497  0.77742696    -0.74600
O2032       O  0.17696427  0.89728269  0.76458010    -0.74600
O2033       O  0.14339366  0.86684145  0.75216008    -0.74500
O2034       O  0.14670464  0.92982511  0.78865607    -0.74600
Ni2035     Ni  0.14691429  0.89213296  0.91314184     1.25400
Ni2036     Ni  0.14495275  0.89857988  0.76582318     1.25400
C2037       C  0.14764546  0.93745994  0.86318133     0.87700
C2038       C  0.14452738  0.85332367  0.81435032     0.87600
C2039       C  0.18831111  0.89446775  0.83182580     0.87600
C2040       C  0.10354664  0.89594003  0.84792709     0.87800
O2041       O  0.42163305  0.39809649  0.60072366    -0.74500
O2042       O  0.35810913  0.39921104  0.63543800    -0.74500
O2043       O  0.39062177  0.43045475  0.61828647    -0.74600
O2044       O  0.38925989  0.36656518  0.61734489    -0.74600
O2045       O  0.39577529  0.36617919  0.75468349    -0.74600
O2046       O  0.39462380  0.43012717  0.75704707    -0.74600
O2047       O  0.36364000  0.39741569  0.77324984    -0.74500
O2048       O  0.42671900  0.39836207  0.73892548    -0.74600
Ni2049     Ni  0.38967119  0.39859900  0.61293892     1.25400
Ni2050     Ni  0.39535637  0.39806398  0.76085012     1.25400
C2051       C  0.43459829  0.39786913  0.66456973     0.87700
C2052       C  0.35046749  0.39822441  0.71024822     0.87600
C2053       C  0.39279435  0.44077554  0.68770788     0.87600
C2054       C  0.39278241  0.35584754  0.68564931     0.87800
O2055       O  0.11642083  0.39819043  0.94245389    -0.74500
O2056       O  0.17946858  0.39663940  0.89927030    -0.74500
O2057       O  0.14929277  0.42943581  0.92871726    -0.74600
O2058       O  0.14658774  0.36575768  0.91404379    -0.74600
O2059       O  0.14133446  0.36826750  0.77620098    -0.74600
O2060       O  0.14157203  0.43250303  0.79275662    -0.74600
O2061       O  0.17282429  0.40079992  0.76285326    -0.74500
O2062       O  0.11001323  0.40035533  0.80525223    -0.74600
Ni2063     Ni  0.14819374  0.39744287  0.92596393     1.25400
Ni2064     Ni  0.14119513  0.40054848  0.77933417     1.25400
C2065       C  0.10283916  0.39936034  0.88058192     0.87700
C2066       C  0.18650619  0.39865019  0.82390830     0.87600
C2067       C  0.14570518  0.44151741  0.86370119     0.87600
C2068       C  0.14363148  0.35649684  0.84297835     0.87800
O2069       O  0.42659886  0.14697522  0.79056472    -0.74500
O2070       O  0.36340121  0.14972813  0.75154802    -0.74500
O2071       O  0.39332346  0.11653496  0.77893586    -0.74600
O2072       O  0.39675284  0.18012059  0.76376457    -0.74600
O2073       O  0.40021430  0.17780197  0.95847097    -0.74600
O2074       O  0.40129478  0.11386610  0.64319754    -0.74600
O2075       O  0.36928290  0.14496110  0.94840855    -0.74500
O2076       O  0.43226213  0.14680382  0.65272917    -0.74600
Ni2077     Ni  0.39479686  0.14841564  0.77616683     1.25400
Ni2078     Ni  0.40098394  0.14575326  0.96237760     1.25400
C2079       C  0.43981699  0.14698089  0.72765337     0.87700
C2080       C  0.35594575  0.14746291  0.67686956     0.87600
C2081       C  0.39709308  0.10468759  0.71402674     0.87600
C2082       C  0.39868970  0.18942768  0.69194281     0.87800
O2083       O  0.12120988  0.14544866  0.78761346    -0.74500
O2084       O  0.18441896  0.14658486  0.82688182    -0.74500
O2085       O  0.15333042  0.11420060  0.81369221    -0.74600
O2086       O  0.15258549  0.17815209  0.80031516    -0.74600
O2087       O  0.14619328  0.17994326  0.93740703    -0.74600
O2088       O  0.14712209  0.11573576  0.95093705    -0.74600
O2089       O  0.17828537  0.14875186  0.96413318    -0.74500
O2090       O  0.11539673  0.14741347  0.92511223    -0.74600
Ni2091     Ni  0.15308775  0.14604378  0.80222100     1.25400
Ni2092     Ni  0.14656689  0.14798334  0.94930499     1.25400
C2093       C  0.10792157  0.14650289  0.85022756     0.87700
C2094       C  0.19172178  0.14784801  0.90205085     0.87600
C2095       C  0.15047283  0.10439011  0.88424140     0.87600
C2096       C  0.14905890  0.18961178  0.86648783     0.87800
O2097       O  0.64292732  0.42078113  0.04900989    -0.74500
O2098       O  0.64310206  0.35750229  0.01054531    -0.74500
O2099       O  0.67504945  0.38923014  0.03253945    -0.74600
O2100       O  0.61123619  0.38898165  0.02758979    -0.74600
O2101       O  0.61168297  0.39623864  0.89073832    -0.74600
O2102       O  0.67577277  0.39401855  0.89410688    -0.74600
O2103       O  0.64310466  0.36375757  0.87289361    -0.74500
O2104       O  0.64490357  0.42667917  0.91140106    -0.74600
Ni2105     Ni  0.64305446  0.38891260  0.03485265     1.25400
Ni2106     Ni  0.64383382  0.39542120  0.88737489     1.25400
C2107       C  0.64423923  0.43412384  0.98627429     0.87700
C2108       C  0.64320426  0.35027049  0.93524203     0.87600
C2109       C  0.68590380  0.39133983  0.96403226     0.87600
C2110       C  0.60090303  0.39261696  0.95873274     0.87800
O2111       O  0.64854882  0.11671527  0.70234302    -0.74500
O2112       O  0.64898103  0.17977004  0.74659898    -0.74500
O2113       O  0.68056932  0.14812937  0.72772656    -0.74600
O2114       O  0.61693368  0.14878882  0.72021137    -0.74600
O2115       O  0.61542400  0.14062711  0.85626591    -0.74600
O2116       O  0.67955420  0.14184924  0.86522270    -0.74600
O2117       O  0.64650130  0.17262578  0.88329577    -0.74500
O2118       O  0.64852247  0.11002936  0.83969068    -0.74600
Ni2119     Ni  0.64878294  0.14856933  0.71930497     1.25400
Ni2120     Ni  0.64744484  0.14103824  0.86603073     1.25400
C2121       C  0.64891040  0.10302362  0.76427959     0.87700
C2122       C  0.64759472  0.18652232  0.82235222     0.87600
C2123       C  0.69059597  0.14503638  0.79752210     0.87600
C2124       C  0.60564842  0.14491413  0.78661919     0.87800
O2125       O  0.89263356  0.42031954  0.87100154    -0.74500
O2126       O  0.89555199  0.35675108  0.90425046    -0.74500
O2127       O  0.86226926  0.38703443  0.89318224    -0.74600
O2128       O  0.92596982  0.39012028  0.88144314    -0.74600
O2129       O  0.92779078  0.39484296  0.68632715    -0.74600
O2130       O  0.86380625  0.39225715  0.69776319    -0.74600
O2131       O  0.89748519  0.36197823  0.70882108    -0.74500
O2132       O  0.89401770  0.42513765  0.67587853    -0.74600
Ni2133     Ni  0.89406581  0.38835658  0.88252743     1.25400
Ni2134     Ni  0.89584742  0.39372446  0.69709409     1.25400
C2135       C  0.89265036  0.43313630  0.93497164     0.87700
C2136       C  0.89697979  0.34895237  0.64561341     0.87600
C2137       C  0.85251221  0.38924194  0.96385614     0.87600
C2138       C  0.93734911  0.39306482  0.94832412     0.87800
O2139       O  0.89949089  0.11550923  0.88863626    -0.74500
O2140       O  0.89888736  0.17836248  0.84004704    -0.74500
O2141       O  0.86727544  0.14621309  0.86288845    -0.74600
O2142       O  0.93099269  0.14763289  0.86642565    -0.74600
O2143       O  0.93195738  0.14037261  0.72984236    -0.74600
O2144       O  0.86790842  0.13919902  0.72595946    -0.74600
O2145       O  0.89923816  0.17105223  0.70339090    -0.74500
O2146       O  0.90064202  0.10842529  0.75188533    -0.74600
Ni2147     Ni  0.89912815  0.14719394  0.86935703     1.25400
Ni2148     Ni  0.89994778  0.13947911  0.72288839     1.25400
C2149       C  0.90030493  0.10164091  0.82794971     0.87700
C2150       C  0.89899750  0.18502094  0.76373323     0.87600
C2151       C  0.85711708  0.14251461  0.79390541     0.87600
C2152       C  0.94199647  0.14434940  0.79901624     0.87800
O2153       O  0.61540766  0.64344589  0.62872395    -0.74500
O2154       O  0.67857485  0.64377079  0.67317467    -0.74500
O2155       O  0.64756736  0.61161695  0.64616465    -0.74600
O2156       O  0.64684126  0.67526771  0.65445839    -0.74600
O2157       O  0.63986840  0.67394967  0.79130315    -0.74600
O2158       O  0.64046653  0.60969622  0.78283322    -0.74600
O2159       O  0.67159956  0.64170516  0.80993874    -0.74500
O2160       O  0.60890217  0.64152498  0.76582986    -0.74600
Ni2161     Ni  0.64730246  0.64355449  0.64575025     1.25400
Ni2162     Ni  0.63997049  0.64170515  0.79238611     1.25400
C2163       C  0.60177327  0.64231944  0.69042233     0.87700
C2164       C  0.68543411  0.64274415  0.74909331     0.87600
C2165       C  0.64425103  0.60012020  0.71272972     0.87600
C2166       C  0.64343280  0.68515492  0.72396228     0.87800
O2167       O  0.91887897  0.64161858  0.99527140    -0.74500
O2168       O  0.85581345  0.64164152  0.94932518    -0.74500
O2169       O  0.88714510  0.60982665  0.97029391    -0.74600
O2170       O  0.88718929  0.67371859  0.97445130    -0.74600
O2171       O  0.89452814  0.67454694  0.83782019    -0.74600
O2172       O  0.89426067  0.61046155  0.83349540    -0.74600
O2173       O  0.86292401  0.64291217  0.81253278    -0.74500
O2174       O  0.92559830  0.64262118  0.85818622    -0.74600
Ni2175     Ni  0.88702737  0.64167265  0.97725455     1.25400
Ni2176     Ni  0.89456105  0.64260695  0.83065535     1.25400
C2177       C  0.93260333  0.64251008  0.93385785     0.87700
C2178       C  0.84902904  0.64231938  0.87329872     0.87600
C2179       C  0.89046184  0.59959659  0.90130556     0.87600
C2180       C  0.89101732  0.68467818  0.90694423     0.87800
O2181       O  0.61823996  0.89622977  0.80306650    -0.74500
O2182       O  0.68129720  0.89224254  0.76484965    -0.74500
O2183       O  0.65184535  0.92608661  0.78326383    -0.74600
O2184       O  0.64769282  0.86237351  0.78517850    -0.74600
O2185       O  0.64414933  0.86257851  0.97959527    -0.74600
O2186       O  0.64383368  0.92674178  0.98041149    -0.74600
O2187       O  0.67540447  0.89492434  0.96076650    -0.74500
O2188       O  0.61246361  0.89435153  0.66546241    -0.74600
Ni2189     Ni  0.64998664  0.89423670  0.78904584     1.25400
Ni2190     Ni  0.64372970  0.89466217  0.97489298     1.25400
C2191       C  0.60496775  0.89536501  0.74029334     0.87700
C2192       C  0.68871700  0.89336160  0.68981071     0.87600
C2193       C  0.64831088  0.93695997  0.71535438     0.87600
C2194       C  0.64558830  0.85197159  0.71589964     0.87800
O2195       O  0.92518086  0.89346086  0.82930027    -0.74500
O2196       O  0.86154466  0.89404430  0.85537851    -0.74500
O2197       O  0.89393477  0.92543535  0.83877266    -0.74600
O2198       O  0.89327843  0.86168213  0.84477456    -0.74600
O2199       O  0.89681560  0.86216934  0.98367997    -0.74600
O2200       O  0.89768551  0.92638569  0.97756010    -0.74600
O2201       O  0.86574006  0.89443953  0.99402060    -0.74500
O2202       O  0.92906143  0.89367631  0.96808441    -0.74600
Ni2203     Ni  0.89327548  0.89360880  0.83714419     1.25400
Ni2204     Ni  0.89747963  0.89423546  0.98581566     1.25400
C2205       C  0.93755308  0.89350029  0.89466090     0.87700
C2206       C  0.85322247  0.89414610  0.92920701     0.87600
C2207       C  0.89628852  0.93639710  0.90665043     0.87600
C2208       C  0.89497592  0.85142170  0.91492085     0.87800
C2209       C  0.78740629  0.86763200  0.75108644    -0.17900
C2210       C  0.76434821  0.86745068  0.76435694    -0.20100
C2211       C  0.75015954  0.88014192  0.71293611     0.20600
C2212       C  0.75925155  0.89291429  0.98010973    -0.03000
C2213       C  0.78251268  0.89310709  0.96675940    -0.06100
C2214       C  0.79663373  0.88051520  0.01961106     0.20800
C2215       C  0.79163198  0.90593689  0.90073408     0.19000
C2216       C  0.77742840  0.91858966  0.84922730    -0.17600
C2217       C  0.75436405  0.91844769  0.86262463    -0.19800
C2218       C  0.74512578  0.90560419  0.92758589     0.20500
C2219       C  0.72202477  0.90528931  0.94116548    -0.32800
C2220       C  0.71295271  0.89301582  0.00811792     0.01200
C2221       C  0.72708304  0.88054165  0.72725041    -0.24100
C2222       C  0.81974802  0.88115018  0.00702858    -0.28700
C2223       C  0.82887736  0.89363189  0.94075945     0.06900
C2224       C  0.81476903  0.90579914  0.88723977    -0.27400
H2225       H  0.79805637  0.85792574  0.79229007     0.11600
H2226       H  0.75764160  0.85763645  0.81559880     0.12700
H2227       H  0.78413962  0.92844408  0.79811056     0.11800
H2228       H  0.74372342  0.92822562  0.82163669     0.11000
H2229       H  0.71112241  0.91497932  0.90075568     0.16400
H2230       H  0.72007384  0.87099534  0.77870805     0.12300
H2231       H  0.83067263  0.87172053  0.71486282     0.15200
H2232       H  0.82185472  0.91549511  0.83633664     0.15000
C2233       C  0.91894539  0.77977554  0.79461095    -0.17900
C2234       C  0.91832153  0.75642489  0.79326356    -0.20100
C2235       C  0.90533950  0.74457281  0.85146219     0.20600
C2236       C  0.89312381  0.75632831  0.91248741    -0.03000
C2237       C  0.89381053  0.77989254  0.91402921    -0.06100
C2238       C  0.90662532  0.79164569  0.85425705     0.20800
C2239       C  0.88162163  0.79168019  0.97511464     0.19000
C2240       C  0.86868145  0.77980883  0.03341177    -0.17600
C2241       C  0.86795043  0.75644219  0.03171907    -0.19800
C2242       C  0.88018527  0.74455423  0.97181646     0.20500
C2243       C  0.87977151  0.72111485  0.97033594    -0.32800
C2244       C  0.89161867  0.70933759  0.90883555     0.01200
C2245       C  0.90425547  0.72118650  0.84934304    -0.24100
C2246       C  0.90671980  0.81506009  0.85468242    -0.28700
C2247       C  0.89486096  0.82684145  0.91593983     0.06900
C2248       C  0.88259668  0.81511022  0.97670567    -0.27400
H2249       H  0.92882451  0.78856603  0.74824680     0.11600
H2250       H  0.92774362  0.74764134  0.74591056     0.12700
H2251       H  0.85928177  0.78859192  0.08082310     0.11800
H2252       H  0.85800617  0.74765420  0.07788065     0.11000
H2253       H  0.86998686  0.71204317  0.01629357     0.16400
H2254       H  0.91352239  0.71217377  0.80208558     0.12300
H2255       H  0.91623249  0.82416389  0.80798055     0.15200
H2256       H  0.87337686  0.82425732  0.02373545     0.15000
C2257       C  0.61937585  0.78098214  0.83958143    -0.17900
C2258       C  0.61914696  0.75759462  0.84124330    -0.20100
C2259       C  0.63167034  0.74536969  0.78317205     0.20600
C2260       C  0.64434177  0.75685784  0.72214679    -0.03000
C2261       C  0.64450264  0.78043535  0.72024296    -0.06100
C2262       C  0.63208944  0.79254183  0.77969455     0.20800
C2263       C  0.65709683  0.79187975  0.65889184     0.19000
C2264       C  0.66965047  0.77968748  0.60089843    -0.17600
C2265       C  0.66954407  0.75633355  0.60294949    -0.19800
C2266       C  0.65684966  0.74480104  0.66292959     0.20500
C2267       C  0.65632169  0.72141787  0.66423421    -0.32800
C2268       C  0.64390306  0.70982725  0.72516614     0.01200
C2269       C  0.63179100  0.72189123  0.78506596    -0.24100
C2270       C  0.63274732  0.81597676  0.77847927    -0.28700
C2271       C  0.64494331  0.82739716  0.71662408     0.06900
C2272       C  0.65686690  0.81530191  0.65648894    -0.27400
H2273       H  0.60980333  0.79003542  0.88577378     0.11600
H2274       H  0.60938875  0.74906758  0.88862685     0.12700
H2275       H  0.67935591  0.78821425  0.55334636     0.11800
H2276       H  0.67916440  0.74728054  0.55688213     0.11000
H2277       H  0.66576899  0.71219770  0.61804319     0.16400
H2278       H  0.62214177  0.71302118  0.83195753     0.12300
H2279       H  0.62352460  0.82536984  0.82481362     0.15200
H2280       H  0.66637088  0.82415929  0.60911149     0.15000
C2281       C  0.77236360  0.61686370  0.93597434    -0.17900
C2282       C  0.74946406  0.61697696  0.91862918    -0.20100
C2283       C  0.74094401  0.62991215  0.85246560     0.20600
C2284       C  0.75566549  0.64269506  0.80269084    -0.03000
C2285       C  0.77878456  0.64254981  0.82009467    -0.06100
C2286       C  0.78714428  0.62965367  0.88734815     0.20800
C2287       C  0.79351037  0.65531939  0.77027490     0.19000
C2288       C  0.78498342  0.66828328  0.70420922    -0.17600
C2289       C  0.76208395  0.66839585  0.68686390    -0.19800
C2290       C  0.74730669  0.65557799  0.73539394     0.20500
C2291       C  0.72436701  0.65523291  0.71731116    -0.32800
C2292       C  0.70961132  0.64271450  0.76719114     0.01200
C2293       C  0.71797787  0.63028122  0.83516014    -0.24100
C2294       C  0.81009328  0.62994242  0.90523260    -0.28700
C2295       C  0.82485703  0.64241229  0.85519801     0.06900
C2296       C  0.81649000  0.65488771  0.78737162    -0.27400
H2297       H  0.77848502  0.60695761  0.98803383     0.11600
H2298       H  0.73837863  0.60712031  0.95757778     0.12700
H2299       H  0.79606740  0.67814267  0.66526714     0.11800
H2300       H  0.75594479  0.67835338  0.96819748     0.11000
H2301       H  0.71793497  0.66493011  0.66515368     0.16400
H2302       H  0.70662722  0.62057218  0.87365232     0.12300
H2303       H  0.81653089  0.62022961  0.95734376     0.15200
H2304       H  0.82785076  0.66457277  0.74884240     0.15000
C2305       C  0.92599558  0.02630493  0.75329105    -0.17900
C2306       C  0.92534797  0.00314411  0.76426998    -0.20100
C2307       C  0.91225906  0.99362762  0.82778760     0.20600
C2308       C  0.90009503  0.00754402  0.88217627    -0.03000
C2309       C  0.90074285  0.03093969  0.87106793    -0.06100
C2310       C  0.91357177  0.04029660  0.80570405     0.20800
C2311       C  0.88831264  0.04492543  0.92444611     0.19000
C2312       C  0.87540642  0.03535876  0.98851855    -0.17600
C2313       C  0.87482517  0.01213686  0.99974480    -0.19800
C2314       C  0.88708029  0.99807316  0.94689943     0.20500
C2315       C  0.88647149  0.97472827  0.95710036    -0.32800
C2316       C  0.89801658  0.96088026  0.90126346     0.01200
C2317       C  0.91085677  0.97041497  0.83697269    -0.24100
C2318       C  0.91335275  0.06343788  0.79258554    -0.28700
C2319       C  0.90095508  0.07744427  0.84514223     0.06900
C2320       C  0.88880025  0.06817772  0.91198178    -0.27400
H2321       H  0.93586507  0.03325234  0.70272613     0.11600
H2322       H  0.93475255  0.99264287  0.72202147     0.12700
H2323       H  0.86583247  0.04584961  0.03023762     0.11800
H2324       H  0.86483840  0.00517915  0.04994130     0.11000
H2325       H  0.87651791  0.96731415  0.00654870     0.16400
H2326       H  0.91984231  0.95967618  0.79415318     0.12300
H2327       H  0.92283613  0.07059902  0.74130531     0.15200
H2328       H  0.87918338  0.07899673  0.95245850     0.15000
C2329       C  0.86409122  0.50571321  0.03005161    -0.17900
C2330       C  0.86382733  0.52902984  0.02537458    -0.20100
C2331       C  0.87648778  0.54026212  0.96456354     0.20600
C2332       C  0.88909076  0.52791459  0.90640430    -0.03000
C2333       C  0.88930261  0.50435861  0.91094885    -0.06100
C2334       C  0.87697723  0.49326982  0.97384867     0.20800
C2335       C  0.90211367  0.49193603  0.85352774     0.19000
C2336       C  0.91453859  0.50321160  0.79205110    -0.17600
C2337       C  0.91433981  0.52658951  0.78758375    -0.19800
C2338       C  0.90171951  0.53910121  0.84454933     0.20500
C2339       C  0.90163866  0.56257601  0.84132208    -0.32800
C2340       C  0.88965623  0.57492905  0.90086477     0.01200
C2341       C  0.87706000  0.56363491  0.96194872    -0.24100
C2342       C  0.87815626  0.46996849  0.98071547    -0.28700
C2343       C  0.89092192  0.45751940  0.92403639     0.06900
C2344       C  0.90249018  0.46850368  0.85944476    -0.27400
H2345       H  0.85457268  0.49742849  0.07871814     0.11600
H2346       H  0.85409213  0.53830120  0.07049464     0.12700
H2347       H  0.92437797  0.49394320  0.74726288     0.11800
H2348       H  0.92401867  0.53488511  0.73941076     0.11000
H2349       H  0.91135060  0.57122217  0.79403862     0.16400
H2350       H  0.86763954  0.57307775  0.00758715     0.12300
H2351       H  0.86912490  0.46145757  0.03024449     0.15200
H2352       H  0.91237246  0.45886919  0.81580289     0.15000
C2353       C  0.87352184  0.24912931  0.59318456    -0.17900
C2354       C  0.87327315  0.27210544  0.57636620    -0.20100
C2355       C  0.88586285  0.28686511  0.62547603     0.20600
C2356       C  0.89875496  0.27838815  0.69247136    -0.03000
C2357       C  0.89902428  0.25521894  0.70936341    -0.06100
C2358       C  0.88638657  0.24052155  0.65930263     0.20800
C2359       C  0.91181443  0.24679520  0.77670890     0.19000
C2360       C  0.92449134  0.26152039  0.82556936    -0.17600
C2361       C  0.92425032  0.28446855  0.80874406    -0.19800
C2362       C  0.91130703  0.29306399  0.74287884     0.20500
C2363       C  0.91057214  0.31609417  0.72696749    -0.32800
C2364       C  0.89797777  0.32461903  0.65987865     0.01200
C2365       C  0.88584627  0.30992733  0.60875548    -0.24100
C2366       C  0.88676755  0.21750768  0.67655926    -0.28700
C2367       C  0.89900859  0.20914184  0.74488232     0.06900
C2368       C  0.91144527  0.22384540  0.79477843    -0.27400
H2369       H  0.86378576  0.23806251  0.55399759     0.11600
H2370       H  0.86337907  0.27831073  0.52448300     0.12700
H2371       H  0.93432807  0.25532625  0.87762541     0.11800
H2372       H  0.93393679  0.29553997  0.84808546     0.11000
H2373       H  0.91996228  0.32742061  0.76640385     0.16400
H2374       H  0.87601512  0.31650809  0.55726732     0.12300
H2375       H  0.87716080  0.20613904  0.63804376     0.15200
H2376       H  0.92102320  0.21735831  0.84710429     0.15000
C2377       C  0.62560062  0.03464438  0.61448338    -0.17900
C2378       C  0.62544628  0.01130737  0.60793802    -0.20100
C2379       C  0.63792829  0.99809392  0.66372488     0.20600
C2380       C  0.65076611  0.00852625  0.72651294    -0.03000
C2381       C  0.65093424  0.03203007  0.73306914    -0.06100
C2382       C  0.63827366  0.04518029  0.67681508     0.20800
C2383       C  0.66351141  0.04233479  0.79680448     0.19000
C2384       C  0.67618142  0.02920285  0.85207421    -0.17600
C2385       C  0.67606363  0.00594664  0.84542144    -0.19800
C2386       C  0.66322411  0.99547321  0.78356195     0.20500
C2387       C  0.66235259  0.97215530  0.77879295    -0.32800
C2388       C  0.64955205  0.96160094  0.71678247     0.01200
C2389       C  0.63767708  0.97465605  0.65841669    -0.24100
C2390       C  0.63829358  0.06857342  0.68480404    -0.28700
C2391       C  0.65017677  0.07875793  0.75016576     0.06900
C2392       C  0.66280532  0.06556207  0.80550397    -0.27400
H2393       H  0.61585709  0.04445883  0.57059342     0.11600
H2394       H  0.61560012  0.00359282  0.55908592     0.12700
H2395       H  0.68585472  0.03690219  0.90145835     0.11800
H2396       H  0.68566751  0.99612704  0.88974899     0.11000
H2397       H  0.67167519  0.96217859  0.82356389     0.16400
H2398       H  0.62778882  0.96658066  0.61044586     0.12300
H2399       H  0.62849433  0.07876913  0.64224888     0.15200
H2400       H  0.67207578  0.07343793  0.85567667     0.15000
C2401       C  0.78576747  0.16818535  0.67444039    -0.17900
C2402       C  0.76244659  0.16888227  0.67608051    -0.20100
C2403       C  0.75052705  0.15670721  0.73654283     0.20600
C2404       C  0.76219273  0.14390896  0.79663666    -0.03000
C2405       C  0.78572900  0.14325404  0.79513723    -0.06100
C2406       C  0.79754803  0.15533969  0.73334303     0.20800
C2407       C  0.79742339  0.13056519  0.85555185     0.19000
C2408       C  0.78549261  0.11831341  0.91576284    -0.17600
C2409       C  0.76215105  0.11888406  0.91700111    -0.19800
C2410       C  0.75035336  0.13175606  0.85816633     0.20500
C2411       C  0.72694808  0.13269705  0.85975716    -0.32800
C2412       C  0.71523923  0.14504670  0.79896794     0.01200
C2413       C  0.72714585  0.15694384  0.73744673    -0.24100
C2414       C  0.82092523  0.15437278  0.73161719    -0.28700
C2415       C  0.83259993  0.14228659  0.79300372     0.06900
C2416       C  0.82083014  0.13055144  0.85512227    -0.27400
H2417       H  0.79458507  0.17750511  0.62652404     0.11600
H2418       H  0.75371434  0.17870902  0.62931126     0.12700
H2419       H  0.79422735  0.10852424  0.96263213     0.11800
H2420       H  0.75333180  0.10949711  0.96471966     0.11000
H2421       H  0.71782923  0.12341248  0.90703314     0.16400
H2422       H  0.71818705  0.16652702  0.69048796     0.12300
H2423       H  0.83009107  0.16351897  0.68405997     0.15200
H2424       H  0.82993068  0.12122277  0.90242520     0.15000
C2425       C  0.62045287  0.52531916  0.81191080    -0.17900
C2426       C  0.62057173  0.50202862  0.80386779    -0.20100
C2427       C  0.63322272  0.49178216  0.74098133     0.20600
C2428       C  0.64583731  0.50516061  0.68547855    -0.03000
C2429       C  0.64570450  0.52863473  0.69354304    -0.06100
C2430       C  0.63296200  0.53877014  0.75712686     0.20800
C2431       C  0.65816871  0.54195291  0.63746929     0.19000
C2432       C  0.67093732  0.53174369  0.90825387    -0.17600
C2433       C  0.67102675  0.50850579  0.90013286    -0.19800
C2434       C  0.65839590  0.49511079  0.95459565     0.20500
C2435       C  0.65772753  0.47188309  0.94474057    -0.32800
C2436       C  0.64519677  0.45846505  0.99961889     0.01200
C2437       C  0.63330413  0.46844051  0.73192551    -0.24100
C2438       C  0.63294487  0.56215319  0.76463443    -0.28700
C2439       C  0.64495635  0.57549382  0.70771900     0.06900
C2440       C  0.65748753  0.56525775  0.64431441    -0.27400
H2441       H  0.61067431  0.53280638  0.86131630     0.11600
H2442       H  0.61085686  0.49201797  0.84716504     0.12700
H2443       H  0.68054196  0.54176013  0.86461539     0.11800
H2444       H  0.68066933  0.50103026  0.85031015     0.11000
H2445       H  0.66701831  0.46419469  0.89435106     0.16400
H2446       H  0.62360835  0.45809594  0.77426026     0.12300
H2447       H  0.62322254  0.56998275  0.81351763     0.15200
H2448       H  0.66686548  0.57546229  0.60049840     0.15000
C2449       C  0.75706764  0.36389442  0.84934076    -0.17900
C2450       C  0.78040575  0.36340533  0.84995187    -0.20100
C2451       C  0.79246139  0.37591524  0.90873091     0.20600
C2452       C  0.78090005  0.38867670  0.96867878    -0.03000
C2453       C  0.75734515  0.38913446  0.96818128    -0.06100
C2454       C  0.74539951  0.37687778  0.90756934     0.20800
C2455       C  0.74577066  0.40196620  0.69463282     0.19000
C2456       C  0.75782905  0.41432764  0.75383290    -0.17600
C2457       C  0.78117891  0.41393247  0.75414707    -0.19800
C2458       C  0.79286926  0.40113651  0.69536052     0.20500
C2459       C  0.81629358  0.40069389  0.69510964    -0.32800
C2460       C  0.82788662  0.38852452  0.96730711     0.01200
C2461       C  0.81586254  0.37616629  0.90776345    -0.24100
C2462       C  0.72202137  0.37801217  0.90575629    -0.28700
C2463       C  0.71044663  0.39054959  0.96566337     0.06900
C2464       C  0.72234916  0.40224015  0.02724202    -0.27400
H2465       H  0.74814777  0.35439999  0.80243053     0.11600
H2466       H  0.78903874  0.35355291  0.80345981     0.12700
H2467       H  0.74919282  0.42419638  0.80027129     0.11800
H2468       H  0.79009865  0.42352005  0.80078106     0.11000
H2469       H  0.82550481  0.41029479  0.74099152     0.16400
H2470       H  0.82474804  0.36668417  0.86077374     0.12300
H2471       H  0.71277725  0.36887864  0.85861791     0.15200
H2472       H  0.71336402  0.41188248  0.74019844     0.15000
C2473       C  0.62011372  0.27318135  0.00492304    -0.17900
C2474       C  0.62083649  0.25021482  0.98920213    -0.20100
C2475       C  0.63386628  0.24184110  0.92358099     0.20600
C2476       C  0.64616657  0.25674902  0.87282074    -0.03000
C2477       C  0.64536978  0.27991265  0.88845608    -0.06100
C2478       C  0.63235066  0.28815259  0.95508513     0.20800
C2479       C  0.65757944  0.29481237  0.83736587     0.19000
C2480       C  0.67070980  0.28644187  0.77205718    -0.17600
C2481       C  0.67148728  0.26348433  0.75651635    -0.19800
C2482       C  0.65916322  0.24853547  0.80610870     0.20500
C2483       C  0.65934613  0.22556146  0.78939940    -0.32800
C2484       C  0.64721906  0.21065482  0.83995051     0.01200
C2485       C  0.63474614  0.21884281  0.90756050    -0.24100
C2486       C  0.63196175  0.31118663  0.97105693    -0.28700
C2487       C  0.64381782  0.32607069  0.91950480     0.06900
C2488       C  0.65642430  0.31782128  0.85242462    -0.27400
H2489       H  0.61014453  0.27921571  0.05655967     0.11600
H2490       H  0.61136566  0.23897434  0.02891370     0.12700
H2491       H  0.68015002  0.29768544  0.73224611     0.11800
H2492       H  0.68146965  0.25744953  0.70490731     0.11000
H2493       H  0.66907983  0.21923341  0.73754236     0.16400
H2494       H  0.62535132  0.20733719  0.94656436     0.12300
H2495       H  0.62220179  0.31758316  0.02271568     0.15200
H2496       H  0.66568008  0.32932398  0.81292311     0.15000
C2497       C  0.03391345  0.17251056  0.93820538    -0.17900
C2498       C  0.01068667  0.17213451  0.93131710    -0.20100
C2499       C  0.00031463  0.15917244  0.86962245     0.20600
C2500       C  0.01343005  0.14681539  0.81307653    -0.03000
C2501       C  0.03689968  0.14723013  0.81991563    -0.06100
C2502       C  0.04711239  0.15995881  0.88340045     0.20800
C2503       C  0.05011386  0.13472052  0.76403223     0.19000
C2504       C  0.03968133  0.12193106  0.70182977    -0.17600
C2505       C  0.01637544  0.12153150  0.69500032    -0.19800
C2506       C  0.00309829  0.13389432  0.75033125     0.20500
C2507       C  0.97969883  0.13353408  0.74435464    -0.32800
C2508       C  0.96659217  0.14539600  0.80197909     0.01200
C2509       C  0.97703898  0.15816481  0.86427168    -0.24100
C2510       C  0.07032674  0.15957067  0.89218704    -0.28700
C2511       C  0.08359294  0.14711406  0.83714547     0.06900
C2512       C  0.07347592  0.13505553  0.77209741    -0.27400
H2513       H  0.04154309  0.18230507  0.98737352     0.11600
H2514       H  0.00081563  0.18166886  0.97523722     0.12700
H2515       H  0.04955231  0.11230881  0.65820026     0.11800
H2516       H  0.00873661  0.11162788  0.64618202     0.11000
H2517       H  0.97169291  0.12365358  0.69622812     0.16400
H2518       H  0.96701013  0.16745837  0.90850279     0.12300
H2519       H  0.07813277  0.16902671  0.94199272     0.15200
H2520       H  0.08372080  0.12543594  0.72960189     0.15000
C2521       C  0.51419178  0.17296914  0.64143081    -0.17900
C2522       C  0.53740050  0.17262791  0.64961508    -0.20100
C2523       C  0.54755332  0.15959116  0.71208051     0.20600
C2524       C  0.53422914  0.14712023  0.76805709    -0.03000
C2525       C  0.51077992  0.14752922  0.75999793    -0.06100
C2526       C  0.50078054  0.16033004  0.69575040     0.20800
C2527       C  0.49737320  0.13495400  0.81550420     0.19000
C2528       C  0.50757333  0.12207538  0.87842280    -0.17600
C2529       C  0.53084987  0.12166099  0.88639074    -0.19800
C2530       C  0.54433122  0.13410784  0.83153452     0.20500
C2531       C  0.56770894  0.13376053  0.83880746    -0.32800
C2532       C  0.58104228  0.14576903  0.78188857     0.01200
C2533       C  0.57081580  0.15863786  0.71884063    -0.24100
C2534       C  0.47757204  0.15994766  0.68587995    -0.28700
C2535       C  0.46413636  0.14749231  0.74081321     0.06900
C2536       C  0.47404735  0.13534161  0.80647310    -0.27400
H2537       H  0.50674663  0.18289103  0.92524922     0.11600
H2538       H  0.54743375  0.18231596  0.93965940     0.12700
H2539       H  0.49754029  0.11239541  0.92174764     0.11800
H2540       H  0.53830460  0.11168764  0.93574410     0.11000
H2541       H  0.57552389  0.12382532  0.88754336     0.16400
H2542       H  0.58100164  0.16806820  0.67514574     0.12300
H2543       H  0.46989937  0.16947952  0.96900130     0.15200
H2544       H  0.46365397  0.12570673  0.84881245     0.15000
C2545       C  0.29067252  0.12241447  0.84741951    -0.17900
C2546       C  0.26768750  0.12247317  0.83216730    -0.20100
C2547       C  0.25334928  0.13531819  0.88183546     0.20600
C2548       C  0.26222583  0.14814305  0.94788825    -0.03000
C2549       C  0.28543247  0.14812611  0.96314001    -0.06100
C2550       C  0.29970089  0.13524033  0.91244764     0.20800
C2551       C  0.29432914  0.16090883  0.69598529     0.19000
C2552       C  0.27997899  0.17380348  0.74549943    -0.17600
C2553       C  0.25697085  0.17383538  0.73031964    -0.19800
C2554       C  0.24792433  0.16095470  0.66545016     0.20500
C2555       C  0.22483686  0.16057425  0.98401736    -0.32800
C2556       C  0.21597521  0.14811024  0.91750024     0.01200
C2557       C  0.23031692  0.13567112  0.86627729    -0.24100
C2558       C  0.32274177  0.13537657  0.92770371    -0.28700
C2559       C  0.33166481  0.14770424  0.66118182     0.06900
C2560       C  0.31737004  0.16036306  0.71196845    -0.27400
H2561       H  0.30142161  0.11249734  0.80778743     0.11600
H2562       H  0.26114667  0.11262858  0.78100232     0.12700
H2563       H  0.28651774  0.18363835  0.79668802     0.11800
H2564       H  0.24621410  0.18372149  0.77003962     0.11000
H2565       H  0.21377560  0.17022684  0.69015983     0.16400
H2566       H  0.22348058  0.12596513  0.81519935     0.12300
H2567       H  0.33372169  0.12556864  0.88847369     0.15200
H2568       H  0.32422336  0.16998943  0.76321405     0.15000
C2569       C  0.02733615  0.42339936  0.79767989    -0.17900
C2570       C  0.00416078  0.42234374  0.80668526    -0.20100
C2571       C  0.99459112  0.40916520  0.86995241     0.20600
C2572       C  0.00849350  0.39730240  0.92597668    -0.03000
C2573       C  0.03190752  0.39835570  0.91684215    -0.06100
C2574       C  0.04131781  0.41130139  0.85183624     0.20800
C2575       C  0.04586746  0.38626472  0.97201607     0.19000
C2576       C  0.03626120  0.37318708  0.70236091    -0.17600
C2577       C  0.01303727  0.37222271  0.71167975    -0.19800
C2578       C  0.99900101  0.38424860  0.99059294     0.20500
C2579       C  0.97567985  0.38338667  0.66605170    -0.32800
C2580       C  0.96181995  0.39473406  0.94225171     0.01200
C2581       C  0.97136151  0.40746855  0.87759266    -0.24100
C2582       C  0.06451346  0.41156189  0.84094542    -0.28700
C2583       C  0.07852500  0.39954797  0.89543508     0.06900
C2584       C  0.06914802  0.38724068  0.96180179    -0.27400
H2585       H  0.03431663  0.43335595  0.74733492     0.11600
H2586       H  0.99370195  0.43153245  0.76319606     0.12700
H2587       H  0.04671671  0.36384281  0.74538200     0.11800
H2588       H  0.00604995  0.36218601  0.76177115     0.11000
H2589       H  0.96827406  0.37349174  0.71576712     0.16400
H2590       H  0.96063800  0.41626565  0.83375940     0.12300
H2591       H  0.07170967  0.42114510  0.78993649     0.15200
H2592       H  0.07992556  0.37789582  0.00376835     0.15000
C2593       C  0.12004186  0.26165095  0.96919883    -0.17900
C2594       C  0.11894894  0.28496937  0.96476843    -0.20100
C2595       C  0.13109307  0.29671385  0.90378382     0.20600
C2596       C  0.14411767  0.28484982  0.84549886    -0.03000
C2597       C  0.14526929  0.26128631  0.85013021    -0.06100
C2598       C  0.13331217  0.24967848  0.91275422     0.20800
C2599       C  0.15851040  0.24937902  0.79262887     0.19000
C2600       C  0.17052886  0.26115856  0.73127226    -0.17600
C2601       C  0.16937359  0.28451696  0.72662358    -0.19800
C2602       C  0.15620340  0.29653797  0.78332569     0.20500
C2603       C  0.15510871  0.32001724  0.77976074    -0.32800
C2604       C  0.14281368  0.33187549  0.83970847     0.01200
C2605       C  0.13081903  0.32012885  0.90125489    -0.24100
C2606       C  0.13498408  0.22633278  0.91841234    -0.28700
C2607       C  0.14794363  0.21430384  0.86086730     0.06900
C2608       C  0.15949424  0.22593294  0.79757715    -0.27400
H2609       H  0.11079700  0.25299999  0.01771862     0.11600
H2610       H  0.10891222  0.29385228  0.01005401     0.12700
H2611       H  0.18070761  0.25228707  0.68642501     0.11800
H2612       H  0.17871022  0.29317778  0.67838517     0.11000
H2613       H  0.16449425  0.32909474  0.73266014     0.16400
H2614       H  0.12134144  0.32929784  0.94752890     0.12300
H2615       H  0.12591967  0.21747180  0.96695820     0.15200
H2616       H  0.16951062  0.21675544  0.75300791     0.15000
C2617       C  0.50707675  0.36858296  0.75840511    -0.17900
C2618       C  0.53032046  0.36776213  0.75272244    -0.20100
C2619       C  0.54154798  0.38019015  0.69120170     0.20600
C2620       C  0.52924717  0.39319653  0.96693631    -0.03000
C2621       C  0.50574262  0.39397176  0.63910889    -0.06100
C2622       C  0.49468930  0.38180345  0.70252516     0.20800
C2623       C  0.49333675  0.40710605  0.91542460     0.19000
C2624       C  0.50461898  0.41932830  0.85331916    -0.17600
C2625       C  0.52795172  0.41857108  0.84782847    -0.19800
C2626       C  0.54043603  0.40558130  0.90436307     0.20500
C2627       C  0.56388020  0.40485605  0.89994928    -0.32800
C2628       C  0.57621281  0.39243887  0.95896761     0.01200
C2629       C  0.56488300  0.38009628  0.68735321    -0.24100
C2630       C  0.47147475  0.38336090  0.71003021    -0.28700
C2631       C  0.45899366  0.39636787  0.65358870     0.06900
C2632       C  0.46993008  0.40789453  0.92207114    -0.27400
H2633       H  0.49881152  0.35918530  0.80748314     0.11600
H2634       H  0.53955211  0.35773720  0.79751631     0.12700
H2635       H  0.49538777  0.42941251  0.80873099     0.11800
H2636       H  0.53623000  0.42808384  0.79911545     0.11000
H2637       H  0.57253235  0.41439300  0.85216320     0.16400
H2638       H  0.57427221  0.37035846  0.73265797     0.12300
H2639       H  0.46303525  0.37430752  0.75968782     0.15200
H2640       H  0.46029860  0.41791970  0.87842364     0.15000
C2641       C  0.37230769  0.25979153  0.56481301    -0.17900
C2642       C  0.37114087  0.28313907  0.56485298    -0.20100
C2643       C  0.38316595  0.29555820  0.62397510     0.20600
C2644       C  0.39641135  0.28434430  0.68398726    -0.03000
C2645       C  0.39756040  0.26081215  0.68404279    -0.06100
C2646       C  0.38549396  0.24848503  0.62396494     0.20800
C2647       C  0.41060054  0.24962348  0.74473752     0.19000
C2648       C  0.42274256  0.26201965  0.80353114    -0.17600
C2649       C  0.42167083  0.28534719  0.80326319    -0.19800
C2650       C  0.40840573  0.29662631  0.74430567     0.20500
C2651       C  0.40679580  0.31996188  0.74505081    -0.32800
C2652       C  0.39383329  0.33124509  0.68496671     0.01200
C2653       C  0.38222119  0.31897899  0.62410454    -0.24100
C2654       C  0.38667694  0.22507785  0.62467859    -0.28700
C2655       C  0.39901707  0.21392774  0.68676104     0.06900
C2656       C  0.41093322  0.22623159  0.74651656    -0.27400
H2657       H  0.36301505  0.25059524  0.85154279     0.11600
H2658       H  0.36099397  0.29151124  0.85157318     0.12700
H2659       H  0.43278055  0.25365720  0.85059225     0.11800
H2660       H  0.43093287  0.29455773  0.85004947     0.11000
H2661       H  0.41590815  0.32938841  0.79173127     0.16400
H2662       H  0.37221051  0.32765040  0.57767960     0.12300
H2663       H  0.37740518  0.21550248  0.57888113     0.15200
H2664       H  0.42049121  0.21754450  0.79426504     0.15000
C2665       C  0.27413768  0.42362012  0.64049525    -0.17900
C2666       C  0.25119355  0.42373096  0.65679719    -0.20100
C2667       C  0.24237547  0.41094246  0.72275741     0.20600
C2668       C  0.25683419  0.39807790  0.77337218    -0.03000
C2669       C  0.27998691  0.39800882  0.75706596    -0.06100
C2670       C  0.28866463  0.41076318  0.69002690     0.20800
C2671       C  0.29443617  0.38520347  0.80791419     0.19000
C2672       C  0.28562794  0.37238970  0.87378982    -0.17600
C2673       C  0.26269414  0.37246849  0.88998109    -0.19800
C2674       C  0.24818287  0.38534116  0.84048078     0.20500
C2675       C  0.22521917  0.38588434  0.85745762    -0.32800
C2676       C  0.21071425  0.39848468  0.80677800     0.01200
C2677       C  0.21937000  0.41080106  0.73905602    -0.24100
C2678       C  0.31168170  0.41034050  0.67353114    -0.28700
C2679       C  0.32616308  0.39792336  0.72494738     0.06900
C2680       C  0.31744794  0.38551584  0.79226203    -0.27400
H2681       H  0.28049362  0.43342512  0.58861376     0.11600
H2682       H  0.24030757  0.43364668  0.61720961     0.12700
H2683       H  0.29651985  0.36251827  0.91351587     0.11800
H2684       H  0.25634197  0.36268297  0.94192148     0.11000
H2685       H  0.21857918  0.37628210  0.90944330     0.16400
H2686       H  0.20822186  0.42057799  0.69991865     0.12300
H2687       H  0.31839338  0.42000538  0.62184221     0.15200
H2688       H  0.32859757  0.37588148  0.83190256     0.15000
C2689       C  0.12624810  0.00819714  0.00291937    -0.17900
C2690       C  0.12651114  0.03162283  0.00534642    -0.20100
C2691       C  0.13913114  0.04395577  0.94724490     0.20600
C2692       C  0.15169049  0.03250238  0.88634939    -0.03000
C2693       C  0.15142508  0.00889104  0.88389843    -0.06100
C2694       C  0.13860236  0.99664037  0.94235762     0.20800
C2695       C  0.16370427  0.99757741  0.82194843     0.19000
C2696       C  0.17659244  0.00981638  0.76461295    -0.17600
C2697       C  0.17688824  0.03314973  0.76714903    -0.19800
C2698       C  0.16427892  0.04463319  0.82699182     0.20500
C2699       C  0.16375911  0.06803744  0.82740901    -0.32800
C2700       C  0.15126304  0.07964426  0.88754538     0.01200
C2701       C  0.13928022  0.06749541  0.94833267    -0.24100
C2702       C  0.13810620  0.97312206  0.93816905    -0.28700
C2703       C  0.14960347  0.96190361  0.87424705     0.06900
C2704       C  0.16246144  0.97425515  0.81692999    -0.27400
H2705       H  0.11639379  0.99911295  0.04854875     0.11600
H2706       H  0.11686977  0.04009807  0.05284533     0.12700
H2707       H  0.18607897  0.00135119  0.71662645     0.11800
H2708       H  0.18661760  0.04223503  0.72112291     0.11000
H2709       H  0.17315589  0.07727122  0.78074189     0.16400
H2710       H  0.12960742  0.07634075  0.99484721     0.12300
H2711       H  0.12815193  0.96363482  0.98239730     0.15200
H2712       H  0.17146579  0.96563982  0.76792288     0.15000
C2713       C  0.02926690  0.91974460  0.74625700    -0.17900
C2714       C  0.00598128  0.91926086  0.75249604    -0.20100
C2715       C  0.99554591  0.90635510  0.81467371     0.20600
C2716       C  0.00869790  0.89395032  0.87161624    -0.03000
C2717       C  0.03216685  0.89443028  0.86529882    -0.06100
C2718       C  0.04249766  0.90734422  0.80214503     0.20800
C2719       C  0.04527604  0.88202691  0.92230266     0.19000
C2720       C  0.03486323  0.86906974  0.98435040    -0.17600
C2721       C  0.01161026  0.86866133  0.99082383    -0.19800
C2722       C  0.99841268  0.88114441  0.93516550     0.20500
C2723       C  0.97512727  0.88126052  0.94257909    -0.32800
C2724       C  0.96197183  0.89338687  0.88561286     0.01200
C2725       C  0.97221100  0.90566837  0.82114980    -0.24100
C2726       C  0.06585520  0.90754354  0.79583147    -0.28700
C2727       C  0.07897820  0.89550970  0.85335420     0.06900
C2728       C  0.06857361  0.88287827  0.91658096    -0.27400
H2729       H  0.03692351  0.92965615  0.69721450     0.11600
H2730       H  0.99612393  0.92882541  0.70818689     0.12700
H2731       H  0.04471912  0.85950204  0.02866128     0.11800
H2732       H  0.00395586  0.85880871  0.04005288     0.11000
H2733       H  0.96718731  0.87172849  0.99213787     0.16400
H2734       H  0.96202104  0.91510623  0.77742476     0.12300
H2735       H  0.07382996  0.91730958  0.74702620     0.15200
H2736       H  0.07863220  0.87345298  0.96077113     0.15000
C2737       C  0.12064710  0.51707771  0.77606387    -0.17900
C2738       C  0.12022567  0.54025262  0.78825640    -0.20100
C2739       C  0.13276946  0.55003279  0.85267532     0.20600
C2740       C  0.14589055  0.53627085  0.90525709    -0.03000
C2741       C  0.14628850  0.51290388  0.89305051    -0.06100
C2742       C  0.13357875  0.50324241  0.82820500     0.20800
C2743       C  0.15920820  0.49920352  0.94642612     0.19000
C2744       C  0.17193447  0.50894964  0.01029407    -0.17600
C2745       C  0.17150477  0.53205600  0.02249805    -0.19800
C2746       C  0.15837882  0.54580370  0.97090960     0.20500
C2747       C  0.15714198  0.56884720  0.98515198    -0.32800
C2748       C  0.14404563  0.58266127  0.93349410     0.01200
C2749       C  0.13222484  0.57324960  0.86626930    -0.24100
C2750       C  0.13394665  0.47993634  0.81706187    -0.28700
C2751       C  0.14633099  0.46616149  0.87158127     0.06900
C2752       C  0.15894815  0.47596717  0.93589754    -0.27400
H2753       H  0.11089667  0.50997900  0.72565565     0.11600
H2754       H  0.11013733  0.55054044  0.74706016     0.12700
H2755       H  0.18190394  0.49865074  0.05186349     0.11800
H2756       H  0.18112372  0.53913256  0.07331551     0.11000
H2757       H  0.16639467  0.57608994  0.03667710     0.16400
H2758       H  0.12208183  0.58387712  0.82641940     0.12300
H2759       H  0.12416213  0.47247941  0.76741896     0.15200
H2760       H  0.16862516  0.46547333  0.97785436     0.15000
C2761       C  0.00162848  0.62117069  0.75396080    -0.17900
C2762       C  0.02495326  0.62179668  0.76148342    -0.20100
C2763       C  0.03784880  0.63470475  0.03938564     0.20600
C2764       C  0.02704779  0.64718472  0.97602781    -0.03000
C2765       C  0.00355858  0.64654434  0.96843490    -0.06100
C2766       C  0.99074152  0.63344369  0.02425196     0.20800
C2767       C  0.99294865  0.65877753  0.90407465     0.19000
C2768       C  0.00571761  0.67192731  0.84929212    -0.17600
C2769       C  0.02891851  0.67260879  0.85695662    -0.19800
C2770       C  0.03972259  0.66011567  0.91940642     0.20500
C2771       C  0.06301771  0.66010212  0.92514877    -0.32800
C2772       C  0.07401922  0.64768301  0.98764051     0.01200
C2773       C  0.06131706  0.63528492  0.71228451    -0.24100
C2774       C  0.96735393  0.63266394  0.01507850    -0.28700
C2775       C  0.95688508  0.64418496  0.94888283     0.06900
C2776       C  0.96979936  0.65727988  0.89419675    -0.27400
H2777       H  0.99209346  0.61110623  0.79763993     0.11600
H2778       H  0.03290032  0.61221764  0.81084273     0.12700
H2779       H  0.99778939  0.68135458  0.79945909     0.11800
H2780       H  0.03845378  0.68257245  0.81293662     0.11000
H2781       H  0.07264242  0.66983402  0.88059444     0.16400
H2782       H  0.06967863  0.62567523  0.76064105     0.12300
H2783       H  0.95741469  0.62257888  0.05747009     0.15200
H2784       H  0.96175619  0.66636262  0.84363276     0.15000
C2785       C  0.16744194  0.77576305  0.88084171    -0.17900
C2786       C  0.16680398  0.75284296  0.86370115    -0.20100
C2787       C  0.15369428  0.74464345  0.79778338     0.20600
C2788       C  0.14119285  0.75971656  0.74832077    -0.03000
C2789       C  0.14188753  0.78284830  0.76545324    -0.06100
C2790       C  0.15503019  0.79090401  0.83221007     0.20800
C2791       C  0.12951291  0.79790497  0.71551546     0.19000
C2792       C  0.11632112  0.78971947  0.64986350    -0.17600
C2793       C  0.11565879  0.76682268  0.63281463    -0.19800
C2794       C  0.12815284  0.75171433  0.68121336     0.20500
C2795       C  0.12814819  0.72880970  0.66272126    -0.32800
C2796       C  0.14051530  0.71370912  0.71179828     0.01200
C2797       C  0.15299507  0.72168267  0.77998475    -0.24100
C2798       C  0.15545458  0.81392580  0.84924791    -0.28700
C2799       C  0.14346716  0.82902085  0.79871030     0.06900
C2800       C  0.13064170  0.82089047  0.73173716    -0.27400
H2801       H  0.17752391  0.78163039  0.93256489     0.11600
H2802       H  0.17644655  0.74150043  0.90245907     0.12700
H2803       H  0.10675817  0.80107058  0.61086334     0.11800
H2804       H  0.10563909  0.76096728  0.58090441     0.11000
H2805       H  0.11844551  0.72268756  0.61032539     0.16400
H2806       H  0.16262996  0.71007126  0.81773031     0.12300
H2807       H  0.16542617  0.82014978  0.90074919     0.15200
H2808       H  0.12131254  0.83247703  0.69280041     0.15000
C2809       C  0.37035336  0.01367060  0.86802865    -0.17900
C2810       C  0.37045840  0.03686551  0.85795023    -0.20100
C2811       C  0.38329727  0.04685751  0.79473123     0.20600
C2812       C  0.39585692  0.03337288  0.74005303    -0.03000
C2813       C  0.39569776  0.00995097  0.75004594    -0.06100
C2814       C  0.38304972  0.00012379  0.81491175     0.20800
C2815       C  0.40835714  0.99640212  0.69580698     0.19000
C2816       C  0.42109438  0.00642802  0.63228503    -0.17600
C2817       C  0.42125224  0.02968226  0.62236443    -0.19800
C2818       C  0.40868375  0.04329135  0.67584811     0.20500
C2819       C  0.40867860  0.06662339  0.66631274    -0.32800
C2820       C  0.39650715  0.08012322  0.72165695     0.01200
C2821       C  0.38392263  0.07011740  0.78576587    -0.24100
C2822       C  0.38365649  0.97695587  0.82663375    -0.28700
C2823       C  0.39621039  0.96340296  0.77300041     0.06900
C2824       C  0.40820318  0.97311198  0.70671736    -0.27400
H2825       H  0.36063064  0.00634969  0.91824674     0.11600
H2826       H  0.36077952  0.04701988  0.90050260     0.12700
H2827       H  0.43083934  0.99627472  0.58995387     0.11800
H2828       H  0.43108839  0.03701504  0.57249797     0.11000
H2829       H  0.41845686  0.07429274  0.61692039     0.16400
H2830       H  0.37444034  0.08045907  0.82839560     0.12300
H2831       H  0.37427033  0.96940772  0.87738596     0.15200
H2832       H  0.41789679  0.96260278  0.66536148     0.15000
C2833       C  0.51438843  0.92045240  0.90166717    -0.17900
C2834       C  0.53762717  0.92024788  0.89243826    -0.20100
C2835       C  0.54764345  0.90749130  0.82933698     0.20600
C2836       C  0.53408498  0.89486994  0.77482122    -0.03000
C2837       C  0.51067583  0.89507155  0.78413059    -0.06100
C2838       C  0.50076681  0.90791942  0.84788948     0.20800
C2839       C  0.49719676  0.88252468  0.72921243     0.19000
C2840       C  0.50716974  0.86964503  0.66648604    -0.17600
C2841       C  0.53033888  0.86949698  0.65709740    -0.19800
C2842       C  0.54389071  0.88218050  0.71044354     0.20500
C2843       C  0.56705138  0.88265546  0.69959703    -0.32800
C2844       C  0.58065470  0.89510137  0.75366704     0.01200
C2845       C  0.57093348  0.90721537  0.81930015    -0.24100
C2846       C  0.47743638  0.90799641  0.85658587    -0.28700
C2847       C  0.46393555  0.89588822  0.80079891     0.06900
C2848       C  0.47395979  0.88322137  0.73734461    -0.27400
H2849       H  0.50707651  0.93030550  0.95122074     0.11600
H2850       H  0.54777738  0.92996229  0.93502087     0.12700
H2851       H  0.49702796  0.85992063  0.95710259     0.11800
H2852       H  0.53764761  0.85967990  0.94063192     0.11000
H2853       H  0.57456350  0.87312514  0.98269925     0.16400
H2854       H  0.58144220  0.91682685  0.86107144     0.12300
H2855       H  0.46977639  0.91781155  0.90556852     0.15200
H2856       H  0.46364406  0.87375589  0.69443032     0.15000
C2857       C  0.28412635  0.87145411  0.94814686    -0.17900
C2858       C  0.26080397  0.87052406  0.94779251    -0.20100
C2859       C  0.24850144  0.88268299  0.88829259     0.20600
C2860       C  0.25977708  0.89566961  0.82778062    -0.03000
C2861       C  0.28329288  0.89658848  0.82807407    -0.06100
C2862       C  0.29551478  0.88453482  0.88893775     0.20800
C2863       C  0.29456390  0.90951573  0.76733896     0.19000
C2864       C  0.28226859  0.92166079  0.70782159    -0.17600
C2865       C  0.25895131  0.92082037  0.70775345    -0.19800
C2866       C  0.24756498  0.90778954  0.76710794     0.20500
C2867       C  0.22419145  0.90673198  0.76705807    -0.32800
C2868       C  0.21288384  0.89429938  0.82850865     0.01200
C2869       C  0.22512332  0.88232317  0.88890903    -0.24100
C2870       C  0.31889433  0.88572553  0.88923481    -0.28700
C2871       C  0.33013173  0.89805947  0.82741526     0.06900
C2872       C  0.31793353  0.90983347  0.76653854    -0.27400
H2873       H  0.29325108  0.86213433  0.99530724     0.11600
H2874       H  0.25237359  0.86053990  0.99481695     0.12700
H2875       H  0.29069909  0.93159514  0.66065455     0.11800
H2876       H  0.24982632  0.93016474  0.66066144     0.11000
H2877       H  0.21477971  0.91606290  0.72064322     0.16400
H2878       H  0.21642587  0.87266265  0.93627477     0.12300
H2879       H  0.32838244  0.87653114  0.93582357     0.15200
H2880       H  0.32668504  0.91935314  0.71890345     0.15000
C2881       C  0.36906635  0.51387859  0.79860270    -0.17900
C2882       C  0.36914200  0.53724293  0.79387569    -0.20100
C2883       C  0.38179835  0.54830622  0.73254534     0.20600
C2884       C  0.39442463  0.53569879  0.67511964    -0.03000
C2885       C  0.39430970  0.51216956  0.67975181    -0.06100
C2886       C  0.38161399  0.50119624  0.74196810     0.20800
C2887       C  0.40675863  0.49963155  0.62163022     0.19000
C2888       C  0.41955682  0.51065121  0.56072868    -0.17600
C2889       C  0.41969559  0.53396673  0.88965853    -0.19800
C2890       C  0.40701009  0.54659222  0.94590636     0.20500
C2891       C  0.40643554  0.56990280  0.93972895    -0.32800
C2892       C  0.39394863  0.58253559  0.99665630     0.01200
C2893       C  0.38192863  0.57172954  0.06047494    -0.24100
C2894       C  0.38167427  0.47775540  0.74612544    -0.28700
C2895       C  0.39355238  0.46529742  0.68679922     0.06900
C2896       C  0.40597670  0.47628376  0.62472074    -0.27400
H2897       H  0.35930257  0.50572839  0.84689213     0.11600
H2898       H  0.35942383  0.54666862  0.83858969     0.12700
H2899       H  0.42916855  0.50122631  0.51567694     0.11800
H2900       H  0.42940893  0.54211387  0.84119684     0.11000
H2901       H  0.41583510  0.57827607  0.89083155     0.16400
H2902       H  0.37227340  0.58151884  0.10436540     0.12300
H2903       H  0.37204814  0.46918716  0.79388140     0.15200
H2904       H  0.41521232  0.46658850  0.57925728     0.15000
C2905       C  0.53411842  0.66822475  0.87342898    -0.17900
C2906       C  0.51081962  0.66928787  0.86666269    -0.20100
C2907       C  0.49717989  0.65728562  0.92237533     0.20600
C2908       C  0.50716279  0.64405270  0.98549817    -0.03000
C2909       C  0.53065083  0.64293296  0.65874037    -0.06100
C2910       C  0.54421397  0.65507779  0.93583882     0.20800
C2911       C  0.54052586  0.62985453  0.72242566     0.19000
C2912       C  0.52695354  0.61768235  0.77771047    -0.17600
C2913       C  0.50372469  0.61883164  0.77124501    -0.19800
C2914       C  0.49369545  0.63217265  0.70940631     0.20500
C2915       C  0.47043018  0.63400923  0.70452241    -0.32800
C2916       C  0.46035330  0.64696990  0.97492014     0.01200
C2917       C  0.47376829  0.65830907  0.91643174    -0.24100
C2918       C  0.56758626  0.65413879  0.94394504    -0.28700
C2919       C  0.57742222  0.64180213  0.67595204     0.06900
C2920       C  0.56378045  0.62959383  0.73111879    -0.27400
H2921       H  0.54424918  0.67762014  0.82956446     0.11600
H2922       H  0.50346568  0.67944933  0.81763247     0.12700
H2923       H  0.53430581  0.60761496  0.82704541     0.11800
H2924       H  0.49359309  0.60960033  0.81562544     0.11000
H2925       H  0.46007643  0.62512372  0.74927704     0.16400
H2926       H  0.46598872  0.66833373  0.86786176     0.12300
H2927       H  0.57807072  0.66362784  0.90147502     0.15200
H2928       H  0.57131817  0.61995027  0.78133094     0.15000
C2929       C  0.28000121  0.62382801  0.76209991    -0.17900
C2930       C  0.25666274  0.62388211  0.76463740    -0.20100
C2931       C  0.24434796  0.63652554  0.70659934     0.20600
C2932       C  0.25565611  0.64901006  0.97794320    -0.03000
C2933       C  0.27921871  0.64889377  0.97517830    -0.06100
C2934       C  0.29142718  0.63638461  0.70139355     0.20800
C2935       C  0.29055000  0.66129349  0.91296624     0.19000
C2936       C  0.27822678  0.67391437  0.85489104    -0.17600
C2937       C  0.25488042  0.67409265  0.85783094    -0.19800
C2938       C  0.24344211  0.66160622  0.91876154     0.20500
C2939       C  0.22002140  0.66141257  0.92130374    -0.32800
C2940       C  0.20862962  0.64925696  0.98359231     0.01200
C2941       C  0.22094014  0.63698298  0.70971747    -0.24100
C2942       C  0.31482444  0.63684089  0.03294307    -0.28700
C2943       C  0.32616940  0.64886223  0.97040885     0.06900
C2944       C  0.31397649  0.66081843  0.90994139    -0.27400
H2945       H  0.28912735  0.61418444  0.80833775     0.11600
H2946       H  0.24824637  0.61426833  0.81274785     0.12700
H2947       H  0.28664259  0.68347882  0.80663385     0.11800
H2948       H  0.24575600  0.68378822  0.81175432     0.11000
H2949       H  0.21065450  0.67092198  0.87529248     0.16400
H2950       H  0.21228242  0.62748345  0.75760732     0.12300
H2951       H  0.32426501  0.62752242  0.74605539     0.15200
H2952       H  0.32275711  0.67017045  0.86193760     0.15000
C2953       C  0.36810423  0.75726501  0.79255867    -0.17900
C2954       C  0.36865640  0.78026024  0.77698227    -0.20100
C2955       C  0.38183533  0.79432846  0.82667546     0.20600
C2956       C  0.39436293  0.78520813  0.89344352    -0.03000
C2957       C  0.39380134  0.76201459  0.90916353    -0.06100
C2958       C  0.38073209  0.74799524  0.85801043     0.20800
C2959       C  0.40638557  0.75285290  0.97575524     0.19000
C2960       C  0.41951827  0.76694899  0.02553805    -0.17600
C2961       C  0.42011445  0.78995497  0.00981094    -0.19800
C2962       C  0.40754478  0.79923571  0.94420175     0.20500
C2963       C  0.40794587  0.82228373  0.92833454    -0.32800
C2964       C  0.39586434  0.83135767  0.86091302     0.01200
C2965       C  0.38291521  0.81731377  0.81016620    -0.24100
C2966       C  0.38068490  0.72492389  0.87272533    -0.28700
C2967       C  0.39300736  0.71574651  0.93931559     0.06900
C2968       C  0.40559580  0.72977172  0.99132419    -0.27400
H2969       H  0.35804297  0.74668393  0.75263766     0.11600
H2970       H  0.35902736  0.78699988  0.72531948     0.12700
H2971       H  0.42919123  0.76020415  0.07706367     0.11800
H2972       H  0.43025387  0.80052303  0.04948812     0.11000
H2973       H  0.41795552  0.83313011  0.96752328     0.16400
H2974       H  0.37346686  0.82433471  0.75847417     0.12300
H2975       H  0.37093188  0.71406495  0.83265886     0.15200
H2976       H  0.41519608  0.72264232  0.04239430     0.15000
loop_ 
_geom_bond_atom_site_label_1 
_geom_bond_atom_site_label_2 
_geom_bond_distance 
_geom_bond_site_symmetry_2 
_ccdc_geom_bond_type 
O1           Ni9   1.917       .  S
O1           C11   1.281       .  A
O2           Ni9   1.925       .  S
O2           C12   1.283       .  A
O3           Ni9   1.914       .  S
O3           C13   1.280       .  A
O4           Ni9   1.914       .  S
O4           C14   1.281       .  A
O5          Ni10   1.926       .  S
O5           C14   1.282       .  A
O6          Ni10   1.925       .  S
O6           C13   1.283       .  A
O7          Ni10   1.903       .  S
O7           C12   1.278       .  A
O8          Ni10   1.910       .  S
O8           C11   1.280       .  A
Ni9         Ni10   2.390       .  S
C11         C908   1.470       .  S
C12         C983   1.470       .  S
C13         C959   1.474       .  S
C14         C932   1.475       .  S
O15         Ni23   1.917       .  S
O15          C25   1.281       .  A
O16         Ni23   1.917       .  S
O16          C26   1.282       .  A
O17         Ni23   1.910       .  S
O17          C27   1.280       .  A
O18         Ni23   1.910       .  S
O18          C28   1.281       .  A
O19         Ni24   1.922       .  S
O19          C28   1.282       .  A
O20         Ni24   1.920       .  S
O20          C27   1.282       .  A
O21         Ni24   1.911       .  S
O21          C26   1.280       .  A
O22         Ni24   1.911       .  S
O22          C25   1.280       .  A
Ni23        Ni24   2.389       .  S
C25         C839   1.469       .  S
C26         C980   1.471       .  S
C27         C887   1.469       .  S
C28         C863   1.477       .  S
O29         Ni37   1.928       .  S
O29          C39   1.283       .  A
O30         Ni37   1.921       .  S
O30        C1032   1.282       .  A
O31         Ni37   1.917       .  S
O31          C41   1.281       .  A
O32         Ni37   1.908       .  S
O32          C42   1.280       .  A
O33         Ni38   1.932       .  S
O33        C2026   1.284   1_554  A
O34         Ni38   1.922       .  S
O34        C2025   1.283   1_554  A
O35         Ni38   1.920       .  S
O35          C40   1.281       .  A
O36         Ni38   1.912       .  S
O36        C2023   1.281   1_554  A
Ni37      Ni1030   2.388       .  S
Ni38      Ni2021   2.388   1_554  S
C39        O1028   1.281       .  A
C39         C764   1.477       .  S
C40        O2014   1.282   1_554  A
C40         C812   1.478       .  S
C41        O1026   1.283       .  A
C41         C956   1.481       .  S
C42        O1025   1.284       .  A
C42         C788   1.482       .  S
O43         Ni51   1.934       .  S
O43          C53   1.284       .  A
O44         Ni51   1.926       .  S
O44          C54   1.283       .  A
O45         Ni51   1.910       .  S
O45          C55   1.280       .  A
O46         Ni51   1.910       .  S
O46          C56   1.280       .  A
O47         Ni52   1.920       .  S
O47          C56   1.282       .  A
O48         Ni52   1.920       .  S
O48          C55   1.282       .  A
O49         Ni52   1.915       .  S
O49          C54   1.281       .  A
O50         Ni52   1.909       .  S
O50          C53   1.280       .  A
Ni51        Ni52   2.389       .  S
C53         C719   1.479       .  S
C54         C815   1.478       .  S
C55         C884   1.473       .  S
C56         C743   1.475       .  S
O57         Ni65   1.925       .  S
O57          C67   1.282       .  A
O58         Ni65   1.926       .  S
O58          C68   1.283   1_556  A
O59         Ni65   1.909       .  S
O59          C69   1.280   1_556  A
O60         Ni65   1.918       .  S
O60          C70   1.281   1_556  A
O61         Ni66   1.911       .  S
O61          C70   1.281       .  A
O62         Ni66   1.920       .  S
O62          C69   1.281       .  A
O63         Ni66   1.911       .  S
O63          C68   1.280       .  A
O64         Ni66   1.912       .  S
O64          C67   1.281   1_554  A
Ni65        Ni66   2.390   1_556  S
C67         C647   1.475       .  S
C68         C695   1.475       .  S
C69         C911   1.468       .  S
C70         C668   1.474       .  S
O71         Ni79   1.923       .  S
O71          C81   1.282       .  A
O72         Ni79   1.923       .  S
O72          C82   1.283       .  A
O73         Ni79   1.916       .  S
O73          C83   1.282       .  A
O74         Ni79   1.909       .  S
O74          C84   1.279       .  A
O75         Ni80   1.932       .  S
O75          C84   1.284       .  A
O76         Ni80   1.925       .  S
O76          C83   1.283       .  A
O77         Ni80   1.914       .  S
O77          C82   1.280       .  A
O78         Ni80   1.914       .  S
O78          C81   1.281       .  A
Ni79        Ni80   2.388       .  S
C81         C599   1.476       .  S
C82         C692   1.476       .  S
C83         C767   1.481       .  S
C84         C620   1.475       .  S
O85         Ni93   1.921       .  S
O85          C95   1.281       .  A
O86         Ni93   1.923       .  S
O86          C96   1.283       .  A
O87         Ni93   1.910       .  S
O87          C97   1.281       .  A
O88         Ni93   1.910       .  S
O88          C98   1.280       .  A
O89         Ni94   1.919       .  S
O89        C1090   1.281       .  A
O90       Ni2078   1.920       .  S
O90          C97   1.282   1_556  A
O91         Ni94   1.913       .  S
O91        C1088   1.280       .  A
O92       Ni2078   1.913       .  S
O92          C95   1.281   1_556  A
Ni93      Ni2078   2.388   1_554  S
Ni94       O1082   1.920       .  S
Ni94       O1084   1.913       .  S
Ni94      Ni1085   2.388       .  S
C95         C551   1.472       .  S
C96        O2075   1.280   1_554  A
C96         C575   1.476   1_554  S
C97         C836   1.475       .  S
C98        O2073   1.281   1_554  A
C98         C671   1.468       .  S
O99        Ni107   1.924       .  S
O99         C109   1.282       .  A
O100       Ni107   1.918       .  S
O100        C110   1.282       .  A
O101       Ni107   1.913       .  S
O101        C111   1.281       .  A
O102       Ni107   1.922       .  S
O102        C112   1.282       .  A
O103       Ni108   1.921       .  S
O103        C112   1.283       .  A
O104       Ni108   1.930       .  S
O104        C111   1.283       .  A
O105       Ni108   1.915       .  S
O105        C110   1.281       .  A
O106       Ni108   1.907       .  S
O106        C109   1.280       .  A
Ni107      Ni108   2.389       .  S
C109        C527   1.473       .  S
C110        C572   1.474       .  S
C111        C716   1.482       .  S
C112        C623   1.481       .  S
O113       Ni121   1.921       .  S
O113        C123   1.282       .  A
O114       Ni121   1.921       .  S
O114        C124   1.282       .  A
O115       Ni121   1.917       .  S
O115        C125   1.281       .  A
O116       Ni121   1.910       .  S
O116        C126   1.281       .  A
O117       Ni122   1.928       .  S
O117        C126   1.283       .  A
O118       Ni122   1.918       .  S
O118        C125   1.281       .  A
O119       Ni122   1.910       .  S
O119        C124   1.280       .  A
O120       Ni122   1.912       .  S
O120        C123   1.281       .  A
Ni121      Ni122   2.390       .  S
C123        C452   1.474       .  S
C124        C503   1.471       .  S
C125        C479   1.471       .  S
C126        C644   1.479       .  S
O127       Ni135   1.927       .  S
O127        C137   1.283       .  A
O128       Ni135   1.919       .  S
O128        C138   1.282       .  A
O129       Ni135   1.909       .  S
O129        C139   1.280       .  A
O130       Ni135   1.908       .  S
O130        C140   1.280       .  A
O131       Ni136   1.925       .  S
O131        C140   1.283       .  A
O132       Ni136   1.924       .  S
O132        C139   1.283       .  A
O133       Ni136   1.912       .  S
O133        C138   1.280       .  A
O134       Ni136   1.906       .  S
O134        C137   1.279       .  A
Ni135      Ni136   2.389       .  S
C137        C407   1.472       .  S
C138        C500   1.473       .  S
C139        C428   1.477       .  S
C140        C548   1.477       .  S
O141       Ni149   1.922       .  S
O141        C151   1.282       .  A
O142       Ni149   1.923       .  S
O142       C1144   1.282       .  A
O143       Ni149   1.914       .  S
O143        C153   1.281       .  A
O144       Ni149   1.914       .  S
O144        C154   1.281       .  A
O145       Ni150   1.923       .  S
O145       C2138   1.282   1_554  A
O146       Ni150   1.922       .  S
O146       C2137   1.282   1_554  A
O147       Ni150   1.910       .  S
O147        C152   1.280   1_554  A
O148       Ni150   1.911       .  S
O148       C2135   1.280   1_554  A
Ni149     Ni1142   2.390       .  S
Ni150     Ni2133   2.390   1_554  S
C151       O1140   1.280       .  A
C151        C359   1.472       .  S
C152       O2126   1.282       .  A
C152        C380   1.474       .  S
C153       O1138   1.282       .  A
C153        C476   1.477       .  S
C154       O1137   1.282       .  A
C154        C596   1.473       .  S
O155       Ni163   1.919       .  S
O155        C165   1.281       .  A
O156       Ni163   1.921       .  S
O156        C166   1.282       .  A
O157       Ni163   1.912       .  S
O157        C167   1.280       .  A
O158       Ni163   1.910       .  S
O158        C168   1.281       .  A
O159       Ni164   1.922       .  S
O159        C168   1.282       .  A
O160       Ni164   1.920       .  S
O160        C167   1.282       .  A
O161       Ni164   1.914       .  S
O161        C166   1.280       .  A
O162       Ni164   1.913       .  S
O162        C165   1.281       .  A
Ni163      Ni164   2.391       .  S
C165        C335   1.473       .  S
C166        C383   1.473       .  S
C167        C431   1.469       .  S
C168        C524   1.476       .  S
O169       Ni177   1.930       .  S
O169        C179   1.284   1_556  A
O170       Ni177   1.924   1_554  S
O170        C180   1.283       .  A
O171       Ni177   1.911       .  S
O171        C181   1.280   1_556  A
O172       Ni177   1.904       .  S
O172        C182   1.279   1_556  A
O173       Ni178   1.929       .  S
O173        C182   1.284       .  A
O174       Ni178   1.922       .  S
O174        C181   1.282       .  A
O175       Ni178   1.915       .  S
O175        C180   1.281       .  A
O176       Ni178   1.909       .  S
O176        C179   1.280       .  A
Ni177      Ni178   2.389   1_556  S
C179        C935   1.477       .  S
C180        C308   1.477       .  S
C181        C455   1.477       .  S
C182        C284   1.477       .  S
O183       Ni191   1.930       .  S
O183        C193   1.283       .  A
O184       Ni191   1.922       .  S
O184        C194   1.282       .  A
O185       Ni191   1.909       .  S
O185        C195   1.280       .  A
O186       Ni191   1.918       .  S
O186        C196   1.281       .  A
O187       Ni192   1.915       .  S
O187        C196   1.281       .  A
O188       Ni192   1.924       .  S
O188        C195   1.282       .  A
O189       Ni192   1.917       .  S
O189        C194   1.281       .  A
O190       Ni192   1.910       .  S
O190        C193   1.281       .  A
Ni191      Ni192   2.389       .  S
C193        C791   1.478       .  S
C194        C311   1.476       .  S
C195        C356   1.477       .  S
C196        C260   1.476       .  S
O197       Ni205   1.919       .  S
O197        C207   1.281       .  A
O198       Ni205   1.920       .  S
O198        C208   1.282       .  A
O199       Ni205   1.911       .  S
O199        C209   1.281       .  A
O200       Ni205   1.913       .  S
O200        C210   1.280       .  A
O201       Ni206   1.921       .  S
O201       C1202   1.282       .  A
O202       Ni206   1.922       .  S
O202       C1201   1.282       .  A
O203       Ni206   1.911       .  S
O203       C1200   1.280       .  A
O204      Ni2190   1.912       .  S
O204        C207   1.281   1_556  A
Ni205     Ni2190   2.388   1_554  S
Ni206      O1196   1.912       .  S
Ni206     Ni1197   2.388       .  S
C207        C860   1.473       .  S
C208       O2187   1.280   1_554  A
C208       C2220   1.472       .  S
C209       O2186   1.282   1_554  A
C209        C404   1.476       .  S
C210       O2185   1.282   1_554  A
C210        C287   1.471       .  S
O211       Ni219   1.916       .  S
O211        C221   1.281       .  A
O212       Ni219   1.924       .  S
O212        C222   1.283       .  A
O213       Ni219   1.905       .  S
O213        C223   1.279       .  A
O214       Ni219   1.914       .  S
O214        C224   1.280       .  A
O215       Ni220   1.919       .  S
O215        C224   1.281       .  A
O216       Ni220   1.928       .  S
O216        C223   1.283       .  A
O217       Ni220   1.906       .  S
O217        C222   1.279       .  A
O218       Ni220   1.914       .  S
O218        C221   1.281       .  A
Ni219      Ni220   2.392       .  S
C221        C740   1.470       .  S
C222        C239   1.471       .  S
C223        C332   1.471       .  S
C224        C263   1.471       .  S
C225        C226   1.398       .  A
C225       C2214   1.403       .  A
C225        H241   1.084       .  S
C226        C227   1.403       .  A
C226        H242   1.084       .  S
C227        C237   1.402       .  A
C227       C2212   1.413   1_554  A
C228        C234   1.411       .  A
C228        C229   1.410       .  A
C228       C1219   1.413       .  A
C229        C231   1.413       .  A
C229        C230   1.411       .  A
C230        C238   1.400       .  A
C230       C1217   1.403       .  A
C231        C240   1.403       .  A
C231        C232   1.403       .  A
C232        C233   1.399       .  A
C232        H243   1.083       .  S
C233        C234   1.404       .  A
C233        H244   1.084       .  S
C234        C235   1.401       .  A
C235        C236   1.405       .  A
C235        H245   1.085       .  S
C236       C1200   1.472       .  S
C236       C1229   1.404       .  A
C237       C2220   1.404       .  A
C237        H246   1.085       .  S
C238        C239   1.405       .  A
C238       H1239   1.085       .  S
C239        C240   1.404       .  A
C240        H248   1.084       .  S
H247       C2222   1.085       .  S
C249        C250   1.398       .  A
C249        C254   1.403       .  A
C249        H265   1.084       .  S
C250        C251   1.403       .  A
C250        H266   1.084       .  S
C251        C261   1.401       .  A
C251        C252   1.412       .  A
C252        C258   1.412       .  A
C252        C253   1.411       .  A
C253        C255   1.412       .  A
C253        C254   1.412       .  A
C254        C262   1.401       .  A
C255        C264   1.403       .  A
C255        C256   1.404       .  A
C256        C257   1.399       .  A
C256        H267   1.083       .  S
C257        C258   1.404       .  A
C257        H268   1.083       .  S
C258        C259   1.403       .  A
C259        C260   1.406       .  A
C259        H269   1.084       .  S
C260        C261   1.406       .  A
C261        H270   1.084       .  S
C262        C263   1.404       .  A
C262        H271   1.085       .  S
C263        C264   1.404       .  A
C264        H272   1.085       .  S
C273        C274   1.400       .  A
C273        C278   1.404       .  A
C273        H289   1.083       .  S
C274        C275   1.404       .  A
C274        H290   1.083       .  S
C275        C285   1.405       .  A
C275        C276   1.413       .  A
C276        C282   1.410   1_554  A
C276        C277   1.411       .  A
C277        C279   1.413   1_554  A
C277        C278   1.411       .  A
C278        C286   1.403       .  A
C279        C288   1.402       .  A
C279        C280   1.403       .  A
C280        C281   1.398       .  A
C280        H291   1.084       .  S
C281        C282   1.404       .  A
C281        H292   1.084       .  S
C282        C283   1.400       .  A
C283        C284   1.407   1_556  A
C283        H293   1.085       .  S
C284        C285   1.405       .  A
C285        H294   1.084       .  S
C286        C287   1.405       .  A
C286        H295   1.085       .  S
C287        C288   1.403   1_554  A
C288        H296   1.085       .  S
C297        C298   1.399       .  A
C297        C302   1.404       .  A
C297        H313   1.083       .  S
C298        C299   1.404       .  A
C298        H314   1.084       .  S
C299        C309   1.403       .  A
C299        C300   1.411       .  A
C300        C306   1.412       .  A
C300        C301   1.412       .  A
C301        C303   1.412       .  A
C301        C302   1.412       .  A
C302        C310   1.404       .  A
C303        C312   1.404       .  A
C303        C304   1.404       .  A
C304        C305   1.399       .  A
C304        H315   1.084   1_554  S
C305        C306   1.404       .  A
C305       H2300   1.083   1_554  S
C306        C307   1.404       .  A
C307        C308   1.405       .  A
C307        H317   1.084   1_554  S
C308        C309   1.406       .  A
C309        H318   1.085       .  S
C310        C311   1.405       .  A
C310        H319   1.084       .  S
C311        C312   1.406       .  A
C312        H320   1.084       .  S
H316       C1297   1.083       .  S
C321        C322   1.397       .  A
C321        C326   1.403       .  A
C321        H337   1.084       .  S
C322        C323   1.403   1_545  A
C322        H338   1.084   1_545  S
C323        C333   1.398       .  A
C323        C324   1.411   1_565  A
C324        C330   1.413   1_545  A
C324        C325   1.411       .  A
C325        C327   1.412       .  A
C325        C326   1.412       .  A
C326        C334   1.399       .  A
C327        C336   1.405       .  A
C327        C328   1.404       .  A
C328        C329   1.401       .  A
C328        H339   1.084       .  S
C329        C330   1.404   1_545  A
C329        H340   1.083       .  S
C330        C331   1.406       .  A
C331        C332   1.404       .  A
C331        H341   1.084       .  S
C332        C333   1.404       .  A
C333        H342   1.085       .  S
C334        C335   1.404       .  A
C334        H343   1.085       .  S
C335        C336   1.406       .  A
C336        H344   1.084       .  S
C345        C346   1.397       .  A
C345        C350   1.403       .  A
C345        H361   1.084       .  S
C346        C347   1.403       .  A
C346        H362   1.084       .  S
C347        C357   1.399       .  A
C347        C348   1.411       .  A
C348        C354   1.412       .  A
C348        C349   1.411       .  A
C349        C351   1.412       .  A
C349        C350   1.412       .  A
C350        C358   1.400       .  A
C351        C360   1.405       .  A
C351        C352   1.404       .  A
C352        C353   1.400       .  A
C352        H363   1.083       .  S
C353        C354   1.404       .  A
C353        H364   1.083       .  S
C354        C355   1.405       .  A
C355        C356   1.407       .  A
C355        H365   1.084       .  S
C356        C357   1.406       .  A
C357        H366   1.085       .  S
C358        C359   1.404       .  A
C358        H367   1.085       .  S
C359        C360   1.405       .  A
C360        H368   1.084       .  S
C369        C370   1.400       .  A
C369        C374   1.404       .  A
C369        H385   1.084       .  S
C370        C371   1.404       .  A
C370        H386   1.084       .  S
C371        C381   1.404       .  A
C371        C372   1.413   1_556  A
C372        C378   1.411       .  A
C372        C373   1.411       .  A
C373        C375   1.412       .  A
C373        C374   1.412   1_554  A
C374        C382   1.403   1_556  A
C375        C384   1.402       .  A
C375        C376   1.403       .  A
C376        C377   1.398       .  A
C376        H387   1.083       .  S
C377        C378   1.403       .  A
C377        H388   1.084       .  S
C378        C379   1.401       .  A
C379        C380   1.405   1_554  A
C379        H389   1.085       .  S
C380        C381   1.405       .  A
C381        H390   1.084       .  S
C382        C383   1.406       .  A
C382        H391   1.085   1_554  S
C383        C384   1.404       .  A
C384        H392   1.085       .  S
C393        C394   1.401       .  A
C393        C398   1.404   1_556  A
C393        H409   1.083       .  S
C394        C395   1.405   1_545  A
C394        H410   1.083       .  S
C395        C405   1.405       .  A
C395        C396   1.412   1_566  A
C396        C402   1.411   1_545  A
C396        C397   1.411       .  A
C397        C399   1.411       .  A
C397        C398   1.413       .  A
C398        C406   1.406       .  A
C399        C408   1.398       .  A
C399        C400   1.403       .  A
C400        C401   1.396       .  A
C400        H411   1.084       .  S
C401        C402   1.403   1_545  A
C401        H412   1.084   1_545  S
C402        C403   1.399       .  A
C403        C404   1.405       .  A
C403        H413   1.085       .  S
C404        C405   1.407   1_554  A
C405        H414   1.084       .  S
C406        C407   1.405       .  A
C406        H415   1.084   1_554  S
C407        C408   1.404       .  A
C408        H416   1.085       .  S
C417        C418   1.398       .  A
C417        C422   1.403       .  A
C417        H433   1.084   1_554  S
C418        C419   1.404       .  A
C418        H434   1.084   1_554  S
C419        C429   1.401       .  A
C419        C420   1.411       .  A
C420        C426   1.412       .  A
C420        C421   1.411       .  A
C421        C423   1.412       .  A
C421        C422   1.413       .  A
C422        C430   1.402       .  A
C423        C432   1.402       .  A
C423        C424   1.404       .  A
C424        C425   1.399       .  A
C424        H435   1.084       .  S
C425        C426   1.404       .  A
C425        H436   1.083       .  S
C426        C427   1.404       .  A
C427        C428   1.405       .  A
C427        H437   1.084       .  S
C428        C429   1.407       .  A
C429        H438   1.085       .  S
C430        C431   1.403       .  A
C430        H439   1.085       .  S
C431        C432   1.404       .  A
C432        H440   1.085       .  S
C441        C442   1.400       .  A
C441        C446   1.404       .  A
C441        H457   1.083       .  S
C442        C443   1.404       .  A
C442        H458   1.083       .  S
C443        C453   1.405       .  A
C443        C444   1.412       .  A
C444        C445   1.411       .  A
C444       C2434   1.411   1_554  A
C445        C447   1.411   1_554  A
C445        C446   1.412       .  A
C446        C454   1.405       .  A
C447        C456   1.400       .  A
C447       C2432   1.403       .  A
C448        C449   1.397       .  A
C448       C1439   1.403       .  A
C448        H459   1.084       .  S
C449        C450   1.403       .  A
C449        H460   1.084       .  S
C450        C451   1.400       .  A
C450       C1436   1.411       .  A
C451        C452   1.405       .  A
C451        H461   1.085       .  S
C452       C1445   1.406       .  A
C453       C2436   1.406   1_554  A
C453        H462   1.084       .  S
C454        C455   1.406       .  A
C454        H463   1.084       .  S
C455        C456   1.406   1_554  A
C456        H464   1.085       .  S
C465        C466   1.399       .  A
C465        C470   1.403       .  A
C465        H481   1.084       .  S
C466        C467   1.404       .  A
C466        H482   1.084       .  S
C467        C477   1.402       .  A
C467        C468   1.411       .  A
C468        C469   1.412       .  A
C468       C1466   1.412       .  A
C469        C470   1.412       .  A
C469       C1463   1.412       .  A
C470        C478   1.403       .  A
C471        C472   1.404       .  A
C471       C2453   1.412   1_554  A
C471       C2464   1.403       .  A
C472        C473   1.399       .  A
C472        H483   1.084       .  S
C473        C474   1.404       .  A
C473        H484   1.083       .  S
C474        C475   1.404       .  A
C474       C2452   1.412   1_554  A
C475       C2460   1.406   1_554  A
C475        H485   1.084       .  S
C476        C477   1.406       .  A
C476       C1467   1.406       .  A
C477        H486   1.084       .  S
C478        C479   1.404       .  A
C478        H487   1.085       .  S
C479        C480   1.404       .  A
C480       C1463   1.403       .  A
C480       H1480   1.085       .  S
H488       C2464   1.085       .  S
C489        C490   1.399       .  A
C489        C494   1.403       .  A
C489        H505   1.084       .  S
C490        C491   1.404       .  A
C490        H506   1.084       .  S
C491        C501   1.402       .  A
C491        C492   1.411       .  A
C492        C498   1.412       .  A
C492        C493   1.410       .  A
C493        C495   1.411       .  A
C493        C494   1.413       .  A
C494        C502   1.403       .  A
C495        C504   1.401       .  A
C495        C496   1.403       .  A
C496        C497   1.398       .  A
C496        H507   1.084       .  S
C497        C498   1.403       .  A
C497        H508   1.084       .  S
C498        C499   1.402       .  A
C499        C500   1.404       .  A
C499        H509   1.085       .  S
C500        C501   1.406       .  A
C501        H510   1.085       .  S
C502        C503   1.404       .  A
C502        H511   1.084       .  S
C503        C504   1.405       .  A
C504        H512   1.085       .  S
C513        C514   1.396       .  A
C513        C518   1.403       .  A
C513        H529   1.084       .  S
C514        C515   1.402       .  A
C514        H530   1.084       .  S
C515        C525   1.398   1_455  A
C515        C516   1.411       .  A
C516        C522   1.412       .  A
C516        C517   1.410       .  A
C517        C519   1.413       .  A
C517        C518   1.411       .  A
C518        C526   1.398       .  A
C519        C528   1.406       .  A
C519        C520   1.404       .  A
C520        C521   1.401       .  A
C520        H531   1.083   1_554  S
C521        C522   1.404       .  A
C521        H532   1.083   1_554  S
C522        C523   1.405   1_455  A
C523        C524   1.407       .  A
C523        H533   1.084       .  S
C524        C525   1.405       .  A
C525        H534   1.085       .  S
C526        C527   1.404       .  A
C526        H535   1.085       .  S
C527        C528   1.406       .  A
C528        H536   1.084       .  S
C537        C538   1.397       .  A
C537        C542   1.403   1_556  A
C537       H2537   1.084       .  S
C538        C539   1.403   1_556  A
C538       H2538   1.084       .  S
C539        C549   1.399       .  A
C539        C540   1.411       .  A
C540        C546   1.412       .  A
C540        C541   1.411       .  A
C541        C543   1.412       .  A
C541        C542   1.412       .  A
C542        C550   1.399       .  A
C543        C552   1.405       .  A
C543        C544   1.404       .  A
C544        C545   1.400       .  A
C544        H555   1.083       .  S
C545        C546   1.404       .  A
C545        H556   1.083       .  S
C546        C547   1.405       .  A
C547        C548   1.407       .  A
C547        H557   1.084       .  S
C548        C549   1.406       .  A
C549        H558   1.085       .  S
C550        C551   1.404       .  A
C550       H2543   1.085   1_554  S
C551        C552   1.406       .  A
C552        H560   1.084       .  S
H553       C1529   1.084       .  S
H554       C1530   1.084       .  S
H559       C1542   1.085       .  S
C561        C562   1.398       .  A
C561        C566   1.403       .  A
C561        H577   1.084       .  S
C562        C563   1.403       .  A
C562        H578   1.083       .  S
C563        C573   1.402       .  A
C563        C564   1.412       .  A
C564        C565   1.411       .  A
C564       C1562   1.412       .  A
C565        C566   1.411       .  A
C565       C1559   1.412       .  A
C566        C574   1.402       .  A
C567        C576   1.404       .  A
C567        C568   1.404       .  A
C567       C2549   1.412   1_554  A
C568        C569   1.399       .  A
C568        H579   1.083       .  S
C569        C570   1.404   1_554  A
C569        H580   1.084       .  S
C570       C2548   1.412       .  A
C570       C2555   1.403       .  A
C571        C572   1.406       .  A
C571       C1562   1.403       .  A
C571       H1573   1.085       .  S
C572        C573   1.404       .  A
C573        H582   1.085       .  S
C574       C1567   1.406       .  A
C574        H583   1.085       .  S
C575        C576   1.406   1_556  A
C575       C2558   1.406       .  A
C576        H584   1.084       .  S
H581       C2555   1.085   1_554  S
C585        C586   1.398       .  A
C585        C590   1.403       .  A
C585        H601   1.084       .  S
C586        C587   1.403   1_455  A
C586        H602   1.084   1_455  S
C587        C597   1.401       .  A
C587        C588   1.412   1_655  A
C588        C594   1.412   1_455  A
C588        C589   1.412       .  A
C589        C591   1.412       .  A
C589        C590   1.412       .  A
C590        C598   1.401       .  A
C591        C600   1.406       .  A
C591       C1584   1.404       .  A
C592        C593   1.401       .  A
C592       C2575   1.404   1_554  A
C592        H603   1.084       .  S
C593       C2578   1.404   1_454  A
C593        H604   1.083       .  S
C594       C1585   1.404   1_655  A
C594       C1587   1.406       .  A
C595       C2578   1.406       .  A
C595       C2580   1.405       .  A
C595        H605   1.084   1_556  S
C596        C597   1.404       .  A
C596       C1587   1.405       .  A
C597        H606   1.085       .  S
C598        C599   1.405       .  A
C598        H607   1.085       .  S
C599        C600   1.407       .  A
C600        H608   1.084       .  S
C609        C610   1.398       .  A
C609        C614   1.403       .  A
C609        H625   1.084       .  S
C610        C611   1.403       .  A
C610        H626   1.084       .  S
C611        C621   1.402       .  A
C611        C612   1.411       .  A
C612        C618   1.413       .  A
C612        C613   1.413       .  A
C613        C615   1.411       .  A
C613        C614   1.412       .  A
C614        C622   1.403       .  A
C615        C624   1.406       .  A
C615        C616   1.405       .  A
C616        C617   1.401       .  A
C616        H627   1.083       .  S
C617        C618   1.404       .  A
C617        H628   1.083       .  S
C618        C619   1.407       .  A
C619        C620   1.405       .  A
C619        H629   1.084       .  S
C620        C621   1.405       .  A
C621        H630   1.085       .  S
C622        C623   1.406       .  A
C622        H631   1.084       .  S
C623        C624   1.408       .  A
C624        H632   1.084       .  S
C633        C634   1.397       .  A
C633        C638   1.403       .  A
C633        H649   1.084       .  S
C634        C635   1.403       .  A
C634        H650   1.084       .  S
C635        C645   1.400       .  A
C635       C2620   1.411   1_554  A
C636        C642   1.412       .  A
C636       C1627   1.411       .  A
C636       C1629   1.412       .  A
C637        C638   1.411   1_556  A
C637       C2620   1.412       .  A
C637       C2623   1.413       .  A
C638        C646   1.399       .  A
C639        C648   1.407       .  A
C639        C640   1.405       .  A
C639       C1629   1.413       .  A
C640        C641   1.402       .  A
C640        H651   1.083       .  S
C641        C642   1.405       .  A
C641        H652   1.083       .  S
C642        C643   1.407       .  A
C643        C644   1.408       .  A
C643        H653   1.084       .  S
C644       C1637   1.406       .  A
C645       C2628   1.406   1_554  A
C645        H654   1.085       .  S
C646        C647   1.404   1_554  A
C646        H655   1.085       .  S
C647       C2632   1.406       .  A
C648       C1639   1.406       .  A
C648        H656   1.084       .  S
C657        C658   1.399       .  A
C657        C662   1.403       .  A
C657       H2657   1.084       .  S
C658        C659   1.404       .  A
C658       H2658   1.083       .  S
C659        C669   1.403       .  A
C659        C660   1.412   1_556  A
C660        C666   1.411       .  A
C660        C661   1.410       .  A
C661        C663   1.412       .  A
C661        C662   1.412   1_554  A
C662        C670   1.402       .  A
C663        C672   1.400       .  A
C663        C664   1.403       .  A
C664        C665   1.397       .  A
C664        H675   1.084       .  S
C665        C666   1.403       .  A
C665        H676   1.084       .  S
C666        C667   1.400       .  A
C667        C668   1.405       .  A
C667        H677   1.085       .  S
C668        C669   1.405   1_554  A
C669        H678   1.084       .  S
C670        C671   1.404   1_556  A
C670        H679   1.085       .  S
C671        C672   1.404       .  A
C672        H680   1.085       .  S
H673       C1649   1.083       .  S
H674       C1650   1.083       .  S
C681        C682   1.400       .  A
C681        C686   1.404   1_556  A
C681        H697   1.083       .  S
C682        C683   1.404   1_556  A
C682        H698   1.084       .  S
C683        C693   1.403       .  A
C683        C684   1.411       .  A
C684        C690   1.412       .  A
C684        C685   1.412       .  A
C685        C687   1.411       .  A
C685        C686   1.413       .  A
C686        C694   1.405       .  A
C687        C696   1.402       .  A
C687        C688   1.404       .  A
C688        C689   1.399       .  A
C688        H699   1.084       .  S
C689        C690   1.403       .  A
C689        H700   1.083       .  S
C690        C691   1.403       .  A
C691        C692   1.405       .  A
C691        H701   1.084       .  S
C692        C693   1.407       .  A
C693        H702   1.084       .  S
C694        C695   1.405       .  A
C694        H703   1.084   1_554  S
C695        C696   1.406       .  A
C696        H704   1.085       .  S
C705        C706   1.403       .  A
C705        C710   1.405   1_545  A
C705        H721   1.083   1_545  S
C706        C707   1.405       .  A
C706        H722   1.083       .  S
C707        C717   1.409       .  A
C707        C708   1.412       .  A
C708        C714   1.411       .  A
C708        C709   1.414       .  A
C709        C711   1.411   1_545  A
C709        C710   1.413   1_545  A
C710        C718   1.409       .  A
C711        C720   1.400       .  A
C711        C712   1.403   1_565  A
C712        C713   1.397       .  A
C712        H723   1.084       .  S
C713        C714   1.403       .  A
C713        H724   1.084       .  S
C714        C715   1.401       .  A
C715        C716   1.406       .  A
C715        H725   1.085       .  S
C716        C717   1.408       .  A
C717        H726   1.084       .  S
C718        C719   1.407       .  A
C718        H727   1.084       .  S
C719        C720   1.405       .  A
C720        H728   1.085       .  S
C729        C730   1.399       .  A
C729        C734   1.404       .  A
C729        H745   1.083       .  S
C730        C731   1.404   1_455  A
C730        H746   1.084   1_455  S
C731        C741   1.403       .  A
C731        C732   1.412   1_655  A
C732        C738   1.412   1_455  A
C732        C733   1.410       .  A
C733        C735   1.411       .  A
C733        C734   1.412       .  A
C734        C742   1.403       .  A
C735        C744   1.400       .  A
C735        C736   1.403       .  A
C736        C737   1.397       .  A
C736        H747   1.084       .  S
C737        C738   1.403   1_455  A
C737        H748   1.084       .  S
C738        C739   1.400       .  A
C739        C740   1.404       .  A
C739        H749   1.085       .  S
C740        C741   1.405       .  A
C741        H750   1.085       .  S
C742        C743   1.406       .  A
C742        H751   1.084       .  S
C743        C744   1.406       .  A
C744        H752   1.085       .  S
C753        C754   1.402       .  A
C753        C758   1.405       .  A
C753        H769   1.083       .  S
C754        C755   1.404       .  A
C754        H770   1.083       .  S
C755        C765   1.408       .  A
C755        C756   1.413       .  A
C756        C762   1.411       .  A
C756        C757   1.413       .  A
C757        C759   1.411       .  A
C757        C758   1.412       .  A
C758        C766   1.407       .  A
C759        C768   1.401       .  A
C759        C760   1.403       .  A
C760        C761   1.397       .  A
C760        H771   1.084       .  S
C761        C762   1.403       .  A
C761        H772   1.084       .  S
C762        C763   1.401       .  A
C763        C764   1.405       .  A
C763        H773   1.085       .  S
C764        C765   1.407       .  A
C765        H774   1.084       .  S
C766        C767   1.408       .  A
C766        H775   1.084       .  S
C767        C768   1.406       .  A
C768        H776   1.084       .  S
C777        C778   1.403       .  A
C777       C2766   1.405   1_455  A
C777        H793   1.083   1_455  S
C778       C2763   1.405       .  A
C778        H794   1.083       .  S
C779        C780   1.412       .  A
C779       C1770   1.405       .  A
C779       C1781   1.410       .  A
C780        C786   1.411       .  A
C780        C781   1.413       .  A
C781        C783   1.411   1_455  A
C781        C782   1.413   1_455  A
C782        C790   1.409       .  A
C782       C1769   1.405   1_655  A
C783        C792   1.399       .  A
C783        C784   1.402   1_655  A
C784        C785   1.396       .  A
C784        H795   1.084   1_455  S
C785        C786   1.403       .  A
C785        H796   1.084       .  S
C786        C787   1.399       .  A
C787        C788   1.406       .  A
C787        H797   1.085       .  S
C788       C1781   1.409       .  A
C789       C2763   1.410       .  A
C789       C2772   1.409   1_554  A
C789        H798   1.084       .  S
C790        C791   1.408       .  A
C790        H799   1.084       .  S
C791        C792   1.404       .  A
C792        H800   1.085       .  S
C801        C802   1.400       .  A
C801        C806   1.404       .  A
C801        H817   1.083       .  S
C802        C803   1.404       .  A
C802        H818   1.084       .  S
C803        C813   1.405       .  A
C803        C804   1.412       .  A
C804        C810   1.412       .  A
C804        C805   1.413       .  A
C805        C807   1.411       .  A
C805        C806   1.412       .  A
C806        C814   1.406       .  A
C807        C816   1.402       .  A
C807        C808   1.403   1_554  A
C808        C809   1.399       .  A
C808        H819   1.084       .  S
C809        C810   1.403   1_556  A
C809        H820   1.083       .  S
C810        C811   1.403   1_554  A
C811        C812   1.405   1_556  A
C811        H821   1.084       .  S
C812        C813   1.407       .  A
C813        H822   1.084       .  S
C814        C815   1.406       .  A
C814        H823   1.084       .  S
C815        C816   1.406       .  A
C816        H824   1.085       .  S
C825        C826   1.396       .  A
C825        C830   1.402       .  A
C825        H841   1.084       .  S
C826        C827   1.403       .  A
C826        H842   1.084       .  S
C827        C837   1.399       .  A
C827        C828   1.411       .  A
C828        C834   1.412       .  A
C828        C829   1.410       .  A
C829        C831   1.412   1_545  A
C829        C830   1.411       .  A
C830        C838   1.398   1_545  A
C831        C840   1.404       .  A
C831        C832   1.404   1_564  A
C832        C833   1.400       .  A
C832        H843   1.084   1_545  S
C833        C834   1.404   1_556  A
C833        H844   1.083       .  S
C834        C835   1.404   1_554  A
C835        C836   1.406   1_556  A
C835        H845   1.084       .  S
C836        C837   1.405       .  A
C837        H846   1.085       .  S
C838        C839   1.403       .  A
C838        H847   1.085       .  S
C839        C840   1.405       .  A
C840        H848   1.084   1_554  S
C849        C850   1.400       .  A
C849        C854   1.404       .  A
C849        H865   1.083       .  S
C850        C851   1.404       .  A
C850        H866   1.083       .  S
C851        C861   1.405       .  A
C851        C852   1.412       .  A
C852        C858   1.411       .  A
C852        C853   1.411       .  A
C853        C855   1.411       .  A
C853        C854   1.412       .  A
C854        C862   1.405       .  A
C855        C864   1.399       .  A
C855        C856   1.403   1_554  A
C856        C857   1.397       .  A
C856       H2851   1.084       .  S
C857        C858   1.403   1_556  A
C857       H2852   1.084       .  S
C858        C859   1.399       .  A
C859        C860   1.404       .  A
C859       H2853   1.085   1_554  S
C860        C861   1.406       .  A
C861        H870   1.084       .  S
C862        C863   1.407       .  A
C862        H871   1.084       .  S
C863        C864   1.405       .  A
C864        H872   1.085       .  S
H867       C1848   1.084       .  S
H868       C1849   1.084       .  S
H869       C1851   1.085       .  S
C873        C874   1.398       .  A
C873        C878   1.403       .  A
C873        H889   1.084       .  S
C874        C875   1.404       .  A
C874        H890   1.084       .  S
C875        C885   1.401       .  A
C875        C876   1.411       .  A
C876        C882   1.412       .  A
C876        C877   1.410       .  A
C877        C879   1.411       .  A
C877        C878   1.413       .  A
C878        C886   1.403       .  A
C879        C888   1.400       .  A
C879        C880   1.403       .  A
C880        C881   1.398       .  A
C880        H891   1.083   1_554  S
C881        C882   1.403       .  A
C881        H892   1.084   1_554  S
C882        C883   1.402       .  A
C883        C884   1.404       .  A
C883        H893   1.085       .  S
C884        C885   1.406       .  A
C885        H894   1.084       .  S
C886        C887   1.404       .  A
C886        H895   1.085       .  S
C887        C888   1.404       .  A
C888        H896   1.085       .  S
C897        C898   1.400       .  A
C897        C902   1.404       .  A
C897        H913   1.083       .  S
C898        C899   1.404       .  A
C898        H914   1.084       .  S
C899        C900   1.412       .  A
C899       C2893   1.403       .  A
C900        C901   1.409       .  A
C900       C2890   1.412   1_554  A
C901        C903   1.412   1_554  A
C901        C902   1.413       .  A
C902        C910   1.404       .  A
C903        C912   1.398       .  A
C903        C904   1.402       .  A
C904       C2889   1.396       .  A
C904        H915   1.084       .  S
C905        C906   1.403       .  A
C905       C1896   1.396       .  A
C905        H916   1.084       .  S
C906        C907   1.398       .  A
C906       C1892   1.412       .  A
C907        C908   1.403       .  A
C907        H917   1.085       .  S
C908        C909   1.405       .  A
C909       C1891   1.403       .  A
C909        H918   1.085       .  S
C910        C911   1.404       .  A
C910        H919   1.084       .  S
C911        C912   1.403   1_554  A
C912        H920   1.085       .  S
C921        C922   1.401       .  A
C921        C926   1.404       .  A
C921        H937   1.083       .  S
C922        C923   1.405       .  A
C922        H938   1.083       .  S
C923        C933   1.407       .  A
C923        C924   1.413       .  A
C924       C1922   1.412       .  A
C924       C1917   1.412       .  A
C925        C927   1.411   1_556  A
C925       C2908   1.412       .  A
C925       C2910   1.413       .  A
C926        C934   1.407       .  A
C926       C1917   1.413       .  A
C927        C936   1.400       .  A
C927        C928   1.403       .  A
C928        C929   1.397       .  A
C928        H939   1.084       .  S
C929        C930   1.403       .  A
C929        H940   1.084       .  S
C930        C931   1.400       .  A
C930       C2908   1.412   1_554  A
C931       C2916   1.404   1_554  A
C931        H941   1.085       .  S
C932        C933   1.406       .  A
C932       C1923   1.404       .  A
C933        H942   1.084       .  S
C934       C1927   1.406       .  A
C934        H943   1.084       .  S
C935        C936   1.405       .  A
C935       C2918   1.406   1_554  A
C936        H944   1.085       .  S
C945        C946   1.399       .  A
C945        C950   1.404       .  A
C945        H961   1.084       .  S
C946        C947   1.404       .  A
C946        H962   1.083       .  S
C947        C957   1.404       .  A
C947       C2932   1.412   1_554  A
C948        C954   1.411       .  A
C948        C949   1.413       .  A
C948       C1939   1.412       .  A
C949        C951   1.413       .  A
C949       C1942   1.412       .  A
C950       C2933   1.412   1_554  A
C950       C2942   1.403       .  A
C951        C960   1.405       .  A
C951        C952   1.404       .  A
C952        C953   1.400       .  A
C952        H963   1.083       .  S
C953        C954   1.404       .  A
C953        H964   1.083       .  S
C954        C955   1.404       .  A
C955        C956   1.408       .  A
C955        H965   1.084       .  S
C956       C1949   1.407       .  A
C957       C2940   1.407   1_554  A
C957        H966   1.084       .  S
C958        C959   1.405       .  A
C958       C1942   1.403       .  A
C958       H1959   1.085       .  S
C959        C960   1.405       .  A
C960        H968   1.084       .  S
H967       C2942   1.085       .  S
C969        C970   1.397       .  A
C969        C974   1.403       .  A
C969        H985   1.084       .  S
C970        C971   1.403       .  A
C970        H986   1.084       .  S
C971        C981   1.401       .  A
C971        C972   1.412       .  A
C972        C978   1.411       .  A
C972        C973   1.410       .  A
C973        C975   1.413       .  A
C973        C974   1.411       .  A
C974        C982   1.399       .  A
C975        C984   1.403       .  A
C975        C976   1.403       .  A
C976        C977   1.399       .  A
C976        H987   1.083       .  S
C977        C978   1.403       .  A
C977        H988   1.084       .  S
C978        C979   1.401       .  A
C979        C980   1.405       .  A
C979        H989   1.085       .  S
C980        C981   1.404       .  A
C981        H990   1.085       .  S
C982        C983   1.405       .  A
C982        H991   1.085       .  S
C983        C984   1.403       .  A
C984        H992   1.084       .  S
O993      Ni1001   1.917       .  S
O993       C1003   1.281       .  A
O994      Ni1001   1.925       .  S
O994       C1004   1.283       .  A
O995      Ni1001   1.914       .  S
O995       C1005   1.280       .  A
O996      Ni1001   1.914       .  S
O996       C1006   1.281       .  A
O997      Ni1002   1.926       .  S
O997       C1006   1.282       .  A
O998      Ni1002   1.924       .  S
O998       C1005   1.283       .  A
O999      Ni1002   1.903       .  S
O999       C1004   1.278       .  A
O1000     Ni1002   1.910       .  S
O1000      C1003   1.280       .  A
Ni1001    Ni1002   2.391       .  S
C1003      C1900   1.470       .  S
C1004      C1975   1.470       .  S
C1005      C1951   1.474       .  S
C1006      C1924   1.475       .  S
O1007     Ni1015   1.917       .  S
O1007      C1017   1.281       .  A
O1008     Ni1015   1.917       .  S
O1008      C1018   1.282       .  A
O1009     Ni1015   1.910       .  S
O1009      C1019   1.280       .  A
O1010     Ni1015   1.910       .  S
O1010      C1020   1.281       .  A
O1011     Ni1016   1.922       .  S
O1011      C1020   1.282       .  A
O1012     Ni1016   1.921       .  S
O1012      C1019   1.282       .  A
O1013     Ni1016   1.911       .  S
O1013      C1018   1.280       .  A
O1014     Ni1016   1.911       .  S
O1014      C1017   1.280       .  A
Ni1015    Ni1016   2.389       .  S
C1017      C1831   1.469       .  S
C1018      C1972   1.471       .  S
C1019      C1879   1.469       .  S
C1020      C1855   1.477       .  S
O1021     Ni1029   1.927       .  S
O1021      C1031   1.283       .  A
O1022     Ni1029   1.921       .  S
O1022      C2024   1.282       .  A
O1023     Ni1029   1.917       .  S
O1023      C1033   1.281       .  A
O1024     Ni1029   1.908       .  S
O1024      C1034   1.280       .  A
O1025     Ni1030   1.932       .  S
O1026     Ni1030   1.922       .  S
O1027     Ni1030   1.920       .  S
O1027      C1032   1.281       .  A
O1028     Ni1030   1.912       .  S
Ni1029    Ni2022   2.388       .  S
C1031      O2020   1.281       .  A
C1031      C1756   1.477       .  S
C1032      C1804   1.478       .  S
C1033      O2018   1.283       .  A
C1033      C1948   1.481       .  S
C1034      O2017   1.284       .  A
C1034      C1780   1.482       .  S
O1035     Ni1043   1.934       .  S
O1035      C1045   1.284       .  A
O1036     Ni1043   1.926       .  S
O1036      C1046   1.283       .  A
O1037     Ni1043   1.910       .  S
O1037      C1047   1.280       .  A
O1038     Ni1043   1.910       .  S
O1038      C1048   1.280       .  A
O1039     Ni1044   1.920       .  S
O1039      C1048   1.282       .  A
O1040     Ni1044   1.920       .  S
O1040      C1047   1.282       .  A
O1041     Ni1044   1.915       .  S
O1041      C1046   1.281       .  A
O1042     Ni1044   1.909       .  S
O1042      C1045   1.280       .  A
Ni1043    Ni1044   2.389       .  S
C1045      C1711   1.479       .  S
C1046      C1807   1.478       .  S
C1047      C1876   1.473       .  S
C1048      C1735   1.475       .  S
O1049     Ni1057   1.925       .  S
O1049      C1059   1.282       .  A
O1050     Ni1057   1.926       .  S
O1050      C1060   1.283       .  A
O1051     Ni1057   1.909       .  S
O1051      C1061   1.280       .  A
O1052     Ni1057   1.918       .  S
O1052      C1062   1.281       .  A
O1053     Ni1058   1.911       .  S
O1053      C1062   1.281       .  A
O1054     Ni1058   1.920       .  S
O1054      C1061   1.281       .  A
O1055     Ni1058   1.911       .  S
O1055      C1060   1.280       .  A
O1056     Ni1058   1.912       .  S
O1056      C1059   1.281       .  A
Ni1057    Ni1058   2.390       .  S
C1059      C1639   1.475       .  S
C1060      C1687   1.475       .  S
C1061      C1903   1.468       .  S
C1062      C1660   1.474       .  S
O1063     Ni1071   1.923       .  S
O1063      C1073   1.282       .  A
O1064     Ni1071   1.923       .  S
O1064      C1074   1.283       .  A
O1065     Ni1071   1.916       .  S
O1065      C1075   1.282       .  A
O1066     Ni1071   1.909       .  S
O1066      C1076   1.279       .  A
O1067     Ni1072   1.932       .  S
O1067      C1076   1.284       .  A
O1068     Ni1072   1.925       .  S
O1068      C1075   1.283       .  A
O1069     Ni1072   1.914       .  S
O1069      C1074   1.280       .  A
O1070     Ni1072   1.914       .  S
O1070      C1073   1.281       .  A
Ni1071    Ni1072   2.389       .  S
C1073      C1591   1.476       .  S
C1074      C1684   1.476       .  S
C1075      C1759   1.481       .  S
C1076      C1612   1.475       .  S
O1077     Ni1085   1.921       .  S
O1077      C1087   1.281       .  A
O1078     Ni1085   1.923       .  S
O1078      C1088   1.283       .  A
O1079     Ni1085   1.910       .  S
O1079      C1089   1.281       .  A
O1080     Ni1085   1.910       .  S
O1080      C1090   1.280       .  A
O1081     Ni1086   1.919       .  S
O1081      C2082   1.281       .  A
O1082      C1089   1.282       .  A
O1083     Ni1086   1.913       .  S
O1083      C2080   1.280       .  A
O1084      C1087   1.281       .  A
Ni1086     O2074   1.920       .  S
Ni1086     O2076   1.913       .  S
Ni1086    Ni2077   2.388       .  S
C1087      C1543   1.472       .  S
C1088      C1567   1.476       .  S
C1089      C1828   1.475       .  S
C1090      C1663   1.468       .  S
O1091     Ni1099   1.924       .  S
O1091      C1101   1.282       .  A
O1092     Ni1099   1.918       .  S
O1092      C1102   1.282       .  A
O1093     Ni1099   1.913       .  S
O1093      C1103   1.281       .  A
O1094     Ni1099   1.922       .  S
O1094      C1104   1.282       .  A
O1095     Ni1100   1.921       .  S
O1095      C1104   1.283       .  A
O1096     Ni1100   1.930       .  S
O1096      C1103   1.283       .  A
O1097     Ni1100   1.915       .  S
O1097      C1102   1.281       .  A
O1098     Ni1100   1.907       .  S
O1098      C1101   1.280       .  A
Ni1099    Ni1100   2.389       .  S
C1101      C1519   1.473       .  S
C1102      C1564   1.474       .  S
C1103      C1708   1.482       .  S
C1104      C1615   1.481       .  S
O1105     Ni1113   1.921       .  S
O1105      C1115   1.282       .  A
O1106     Ni1113   1.921       .  S
O1106      C1116   1.282       .  A
O1107     Ni1113   1.917       .  S
O1107      C1117   1.281       .  A
O1108     Ni1113   1.910       .  S
O1108      C1118   1.281       .  A
O1109     Ni1114   1.928       .  S
O1109      C1118   1.283       .  A
O1110     Ni1114   1.918       .  S
O1110      C1117   1.281       .  A
O1111     Ni1114   1.910       .  S
O1111      C1116   1.280       .  A
O1112     Ni1114   1.912       .  S
O1112      C1115   1.281       .  A
Ni1113    Ni1114   2.390       .  S
C1115      C1444   1.474       .  S
C1116      C1495   1.471       .  S
C1117      C1471   1.471       .  S
C1118      C1636   1.479       .  S
O1119     Ni1127   1.927       .  S
O1119      C1129   1.283       .  A
O1120     Ni1127   1.919       .  S
O1120      C1130   1.282       .  A
O1121     Ni1127   1.909       .  S
O1121      C1131   1.280       .  A
O1122     Ni1127   1.908       .  S
O1122      C1132   1.280       .  A
O1123     Ni1128   1.925       .  S
O1123      C1132   1.283       .  A
O1124     Ni1128   1.924       .  S
O1124      C1131   1.283       .  A
O1125     Ni1128   1.912       .  S
O1125      C1130   1.280       .  A
O1126     Ni1128   1.906       .  S
O1126      C1129   1.279       .  A
Ni1127    Ni1128   2.389       .  S
C1129      C1399   1.472       .  S
C1130      C1492   1.473       .  S
C1131      C1420   1.477       .  S
C1132      C1540   1.477       .  S
O1133     Ni1141   1.922       .  S
O1133      C1143   1.282       .  A
O1134     Ni1141   1.923       .  S
O1134      C2136   1.282       .  A
O1135     Ni1141   1.914       .  S
O1135      C1145   1.281       .  A
O1136     Ni1141   1.914       .  S
O1136      C1146   1.281       .  A
O1137     Ni1142   1.923       .  S
O1138     Ni1142   1.922       .  S
O1139     Ni1142   1.910       .  S
O1139      C1144   1.280       .  A
O1140     Ni1142   1.911       .  S
Ni1141    Ni2134   2.390       .  S
C1143      O2132   1.280       .  A
C1143      C1351   1.472       .  S
C1144      C1372   1.474       .  S
C1145      O2130   1.282       .  A
C1145      C1468   1.477       .  S
C1146      O2129   1.282       .  A
C1146      C1588   1.473       .  S
O1147     Ni1155   1.919       .  S
O1147      C1157   1.281       .  A
O1148     Ni1155   1.921       .  S
O1148      C1158   1.282       .  A
O1149     Ni1155   1.912       .  S
O1149      C1159   1.280       .  A
O1150     Ni1155   1.910       .  S
O1150      C1160   1.281       .  A
O1151     Ni1156   1.922       .  S
O1151      C1160   1.282       .  A
O1152     Ni1156   1.920       .  S
O1152      C1159   1.282       .  A
O1153     Ni1156   1.914       .  S
O1153      C1158   1.280       .  A
O1154     Ni1156   1.913       .  S
O1154      C1157   1.281       .  A
Ni1155    Ni1156   2.391       .  S
C1157      C1327   1.473       .  S
C1158      C1375   1.473       .  S
C1159      C1423   1.469       .  S
C1160      C1516   1.476       .  S
O1161     Ni1169   1.930       .  S
O1161      C1171   1.284       .  A
O1162     Ni1169   1.924       .  S
O1162      C1172   1.283       .  A
O1163     Ni1169   1.911       .  S
O1163      C1173   1.280       .  A
O1164     Ni1169   1.904       .  S
O1164      C1174   1.279       .  A
O1165     Ni1170   1.929       .  S
O1165      C1174   1.284       .  A
O1166     Ni1170   1.922       .  S
O1166      C1173   1.282       .  A
O1167     Ni1170   1.915       .  S
O1167      C1172   1.281       .  A
O1168     Ni1170   1.909       .  S
O1168      C1171   1.280       .  A
Ni1169    Ni1170   2.389       .  S
C1171      C1927   1.477       .  S
C1172      C1300   1.477       .  S
C1173      C1447   1.477       .  S
C1174      C1276   1.477       .  S
O1175     Ni1183   1.930       .  S
O1175      C1185   1.283       .  A
O1176     Ni1183   1.922       .  S
O1176      C1186   1.282       .  A
O1177     Ni1183   1.909       .  S
O1177      C1187   1.280       .  A
O1178     Ni1183   1.918       .  S
O1178      C1188   1.282       .  A
O1179     Ni1184   1.915       .  S
O1179      C1188   1.281       .  A
O1180     Ni1184   1.924       .  S
O1180      C1187   1.282       .  A
O1181     Ni1184   1.917       .  S
O1181      C1186   1.281       .  A
O1182     Ni1184   1.910       .  S
O1182      C1185   1.281       .  A
Ni1183    Ni1184   2.389       .  S
C1185      C1783   1.478       .  S
C1186      C1303   1.477       .  S
C1187      C1348   1.477       .  S
C1188      C1252   1.476       .  S
O1189     Ni1197   1.919       .  S
O1189      C1199   1.281       .  A
O1190     Ni1197   1.920       .  S
O1190      C1200   1.282       .  A
O1191     Ni1197   1.911       .  S
O1191      C1201   1.281       .  A
O1192     Ni1197   1.913       .  S
O1192      C1202   1.280       .  A
O1193     Ni1198   1.921       .  S
O1193      C2194   1.282       .  A
O1194     Ni1198   1.922       .  S
O1194      C2193   1.282       .  A
O1195     Ni1198   1.912       .  S
O1195      C2192   1.280       .  A
O1196      C1199   1.281       .  A
Ni1198     O2188   1.912       .  S
Ni1198    Ni2189   2.388       .  S
C1199      C1852   1.473       .  S
C1201      C1396   1.476       .  S
C1202      C1279   1.471       .  S
O1203     Ni1211   1.916       .  S
O1203      C1213   1.281       .  A
O1204     Ni1211   1.924       .  S
O1204      C1214   1.283       .  A
O1205     Ni1211   1.905       .  S
O1205      C1215   1.279       .  A
O1206     Ni1211   1.914       .  S
O1206      C1216   1.280       .  A
O1207     Ni1212   1.920       .  S
O1207      C1216   1.281       .  A
O1208     Ni1212   1.928       .  S
O1208      C1215   1.283       .  A
O1209     Ni1212   1.906       .  S
O1209      C1214   1.279       .  A
O1210     Ni1212   1.914       .  S
O1210      C1213   1.281       .  A
Ni1211    Ni1212   2.392       .  S
C1213      C1732   1.470       .  S
C1214      C1231   1.471       .  S
C1215      C1324   1.471       .  S
C1216      C1255   1.471       .  S
C1217      C1218   1.398       .  A
C1217      H1233   1.084       .  S
C1218      C1219   1.403       .  A
C1218      H1234   1.084       .  S
C1219      C1229   1.402       .  A
C1220      C2211   1.413       .  A
C1220      C1226   1.411       .  A
C1220      C1221   1.410       .  A
C1221      C1223   1.413       .  A
C1221      C1222   1.411       .  A
C1222      C2209   1.403       .  A
C1222      C1230   1.400       .  A
C1223      C1232   1.403       .  A
C1223      C1224   1.403       .  A
C1224      C1225   1.399       .  A
C1224      H1235   1.083       .  S
C1225      C1226   1.404       .  A
C1225      H1236   1.084       .  S
C1226      C1227   1.401       .  A
C1227      C1228   1.405       .  A
C1227      H1237   1.085       .  S
C1228      C2192   1.472       .  S
C1228      C2221   1.404       .  A
C1229      H1238   1.085       .  S
C1230      C1231   1.405       .  A
C1230      H2231   1.085       .  S
C1231      C1232   1.404       .  A
C1232      H1240   1.084       .  S
C1241      C1242   1.398       .  A
C1241      C1246   1.403       .  A
C1241      H1257   1.084       .  S
C1242      C1243   1.403       .  A
C1242      H1258   1.084       .  S
C1243      C1253   1.401       .  A
C1243      C1244   1.412       .  A
C1244      C1250   1.412       .  A
C1244      C1245   1.411       .  A
C1245      C1247   1.412       .  A
C1245      C1246   1.412       .  A
C1246      C1254   1.401       .  A
C1247      C1256   1.403       .  A
C1247      C1248   1.404       .  A
C1248      C1249   1.399       .  A
C1248      H1259   1.083       .  S
C1249      C1250   1.404       .  A
C1249      H1260   1.083       .  S
C1250      C1251   1.403       .  A
C1251      C1252   1.406       .  A
C1251      H1261   1.084       .  S
C1252      C1253   1.406       .  A
C1253      H1262   1.084       .  S
C1254      C1255   1.404       .  A
C1254      H1263   1.085       .  S
C1255      C1256   1.404       .  A
C1256      H1264   1.085       .  S
C1265      C1266   1.400       .  A
C1265      C1270   1.404       .  A
C1265      H1281   1.083       .  S
C1266      C1267   1.404       .  A
C1266      H1282   1.083       .  S
C1267      C1277   1.405       .  A
C1267      C1268   1.413       .  A
C1268      C1274   1.410       .  A
C1268      C1269   1.411       .  A
C1269      C1271   1.413       .  A
C1269      C1270   1.411       .  A
C1270      C1278   1.403       .  A
C1271      C1280   1.402       .  A
C1271      C1272   1.403       .  A
C1272      C1273   1.398       .  A
C1272      H1283   1.084       .  S
C1273      C1274   1.404       .  A
C1273      H1284   1.084       .  S
C1274      C1275   1.400       .  A
C1275      C1276   1.407       .  A
C1275      H1285   1.085       .  S
C1276      C1277   1.405       .  A
C1277      H1286   1.084       .  S
C1278      C1279   1.405       .  A
C1278      H1287   1.085       .  S
C1279      C1280   1.403       .  A
C1280      H1288   1.085       .  S
C1289      C1290   1.399       .  A
C1289      C1294   1.404       .  A
C1289      H1305   1.083       .  S
C1290      C1291   1.404       .  A
C1290      H1306   1.084       .  S
C1291      C1301   1.403       .  A
C1291      C1292   1.411       .  A
C1292      C1298   1.412       .  A
C1292      C1293   1.413       .  A
C1293      C1295   1.412       .  A
C1293      C1294   1.412       .  A
C1294      C1302   1.404       .  A
C1295      C1304   1.404       .  A
C1295      C1296   1.404       .  A
C1296      C1297   1.399       .  A
C1296      H1307   1.084       .  S
C1297      C1298   1.404       .  A
C1298      C1299   1.404       .  A
C1299      C1300   1.405       .  A
C1299      H1309   1.084       .  S
C1300      C1301   1.406       .  A
C1301      H1310   1.085       .  S
C1302      C1303   1.405       .  A
C1302      H1311   1.084       .  S
C1303      C1304   1.406       .  A
C1304      H1312   1.084       .  S
H1308      C2289   1.083       .  S
C1313      C1314   1.397       .  A
C1313      C1318   1.403       .  A
C1313      H1329   1.084       .  S
C1314      C1315   1.403   1_545  A
C1314      H1330   1.084   1_545  S
C1315      C1325   1.398       .  A
C1315      C1316   1.411   1_565  A
C1316      C1322   1.413   1_545  A
C1316      C1317   1.411       .  A
C1317      C1319   1.412       .  A
C1317      C1318   1.412       .  A
C1318      C1326   1.400       .  A
C1319      C1328   1.405       .  A
C1319      C1320   1.404       .  A
C1320      C1321   1.401       .  A
C1320      H1331   1.084       .  S
C1321      C1322   1.404   1_545  A
C1321      H1332   1.083       .  S
C1322      C1323   1.406       .  A
C1323      C1324   1.404       .  A
C1323      H1333   1.084       .  S
C1324      C1325   1.404       .  A
C1325      H1334   1.085       .  S
C1326      C1327   1.404       .  A
C1326      H1335   1.085       .  S
C1327      C1328   1.406       .  A
C1328      H1336   1.084       .  S
C1337      C1338   1.397       .  A
C1337      C1342   1.403       .  A
C1337      H1353   1.084       .  S
C1338      C1339   1.403       .  A
C1338      H1354   1.084       .  S
C1339      C1349   1.399       .  A
C1339      C1340   1.411       .  A
C1340      C1346   1.412       .  A
C1340      C1341   1.411       .  A
C1341      C1343   1.412       .  A
C1341      C1342   1.412       .  A
C1342      C1350   1.400       .  A
C1343      C1352   1.405       .  A
C1343      C1344   1.404       .  A
C1344      C1345   1.400       .  A
C1344      H1355   1.083       .  S
C1345      C1346   1.404       .  A
C1345      H1356   1.083       .  S
C1346      C1347   1.405       .  A
C1347      C1348   1.407       .  A
C1347      H1357   1.084       .  S
C1348      C1349   1.406       .  A
C1349      H1358   1.085       .  S
C1350      C1351   1.404       .  A
C1350      H1359   1.085       .  S
C1351      C1352   1.405       .  A
C1352      H1360   1.084       .  S
C1361      C1362   1.400       .  A
C1361      C1366   1.404       .  A
C1361      H1377   1.084       .  S
C1362      C1363   1.404       .  A
C1362      H1378   1.083       .  S
C1363      C1373   1.404       .  A
C1363      C1364   1.413       .  A
C1364      C1370   1.411       .  A
C1364      C1365   1.411       .  A
C1365      C1367   1.412       .  A
C1365      C1366   1.412       .  A
C1366      C1374   1.403       .  A
C1367      C1376   1.402       .  A
C1367      C1368   1.403       .  A
C1368      C1369   1.398       .  A
C1368      H1379   1.084       .  S
C1369      C1370   1.403       .  A
C1369      H1380   1.084       .  S
C1370      C1371   1.401       .  A
C1371      C1372   1.405       .  A
C1371      H1381   1.085       .  S
C1372      C1373   1.405       .  A
C1373      H1382   1.084       .  S
C1374      C1375   1.406       .  A
C1374      H1383   1.085       .  S
C1375      C1376   1.404       .  A
C1376      H1384   1.085       .  S
C1385      C1386   1.401       .  A
C1385      C1390   1.404       .  A
C1385      H1401   1.083       .  S
C1386      C1387   1.404   1_545  A
C1386      H1402   1.083       .  S
C1387      C1397   1.405       .  A
C1387      C1388   1.412   1_565  A
C1388      C1394   1.411   1_545  A
C1388      C1389   1.411       .  A
C1389      C1391   1.411       .  A
C1389      C1390   1.413       .  A
C1390      C1398   1.406       .  A
C1391      C1400   1.398       .  A
C1391      C1392   1.403       .  A
C1392      C1393   1.396       .  A
C1392      H1403   1.084       .  S
C1393      C1394   1.403   1_545  A
C1393      H1404   1.084   1_545  S
C1394      C1395   1.399       .  A
C1395      C1396   1.405       .  A
C1395      H1405   1.085       .  S
C1396      C1397   1.407       .  A
C1397      H1406   1.084       .  S
C1398      C1399   1.405       .  A
C1398      H1407   1.084       .  S
C1399      C1400   1.404       .  A
C1400      H1408   1.085       .  S
C1409      C1410   1.398       .  A
C1409      C1414   1.403       .  A
C1409      H1425   1.084       .  S
C1410      C1411   1.404       .  A
C1410      H1426   1.084       .  S
C1411      C1421   1.401       .  A
C1411      C1412   1.411       .  A
C1412      C1418   1.412       .  A
C1412      C1413   1.411       .  A
C1413      C1415   1.412       .  A
C1413      C1414   1.413       .  A
C1414      C1422   1.402       .  A
C1415      C1424   1.402       .  A
C1415      C1416   1.404       .  A
C1416      C1417   1.399       .  A
C1416      H1427   1.083       .  S
C1417      C1418   1.404       .  A
C1417      H1428   1.083       .  S
C1418      C1419   1.404       .  A
C1419      C1420   1.405       .  A
C1419      H1429   1.084       .  S
C1420      C1421   1.407       .  A
C1421      H1430   1.085       .  S
C1422      C1423   1.403       .  A
C1422      H1431   1.085       .  S
C1423      C1424   1.404       .  A
C1424      H1432   1.085       .  S
C1433      C1434   1.400       .  A
C1433      C1438   1.404       .  A
C1433      H1449   1.083       .  S
C1434      C1435   1.404       .  A
C1434      H1450   1.083       .  S
C1435      C1445   1.405       .  A
C1435      C1436   1.412       .  A
C1436      C1437   1.411       .  A
C1437      C1439   1.411       .  A
C1437      C1438   1.412       .  A
C1438      C1446   1.405       .  A
C1439      C1448   1.400       .  A
C1440      C2431   1.403       .  A
C1440      C1441   1.397       .  A
C1440      H1451   1.084       .  S
C1441      C1442   1.403       .  A
C1441      H1452   1.084       .  S
C1442      C2428   1.411       .  A
C1442      C1443   1.400       .  A
C1443      C1444   1.405       .  A
C1443      H1453   1.085       .  S
C1444      C2437   1.406       .  A
C1445      H1454   1.084       .  S
C1446      C1447   1.406       .  A
C1446      H1455   1.084       .  S
C1447      C1448   1.406       .  A
C1448      H1456   1.085       .  S
C1457      C1458   1.399       .  A
C1457      C1462   1.403       .  A
C1457      H1473   1.084       .  S
C1458      C1459   1.404       .  A
C1458      H1474   1.083       .  S
C1459      C1469   1.402       .  A
C1459      C1460   1.411       .  A
C1460      C2458   1.412       .  A
C1460      C1461   1.412       .  A
C1461      C2455   1.412       .  A
C1461      C1462   1.412       .  A
C1462      C1470   1.403       .  A
C1463      C1464   1.404       .  A
C1464      C1465   1.399       .  A
C1464      H1475   1.084       .  S
C1465      C1466   1.404       .  A
C1465      H1476   1.083       .  S
C1466      C1467   1.404       .  A
C1467      H1477   1.084       .  S
C1468      C2459   1.406       .  A
C1468      C1469   1.406       .  A
C1469      H1478   1.084       .  S
C1470      C1471   1.404       .  A
C1470      H1479   1.085       .  S
C1471      C1472   1.404       .  A
C1472      C2455   1.403       .  A
C1472      H2472   1.085       .  S
C1481      C1482   1.399       .  A
C1481      C1486   1.403       .  A
C1481      H1497   1.083       .  S
C1482      C1483   1.404       .  A
C1482      H1498   1.084       .  S
C1483      C1493   1.402       .  A
C1483      C1484   1.411       .  A
C1484      C1490   1.412       .  A
C1484      C1485   1.410       .  A
C1485      C1487   1.411       .  A
C1485      C1486   1.413       .  A
C1486      C1494   1.403       .  A
C1487      C1496   1.401       .  A
C1487      C1488   1.403       .  A
C1488      C1489   1.398       .  A
C1488      H1499   1.084       .  S
C1489      C1490   1.403       .  A
C1489      H1500   1.084       .  S
C1490      C1491   1.402       .  A
C1491      C1492   1.404       .  A
C1491      H1501   1.085       .  S
C1492      C1493   1.406       .  A
C1493      H1502   1.085       .  S
C1494      C1495   1.404       .  A
C1494      H1503   1.084       .  S
C1495      C1496   1.405       .  A
C1496      H1504   1.085       .  S
C1505      C1506   1.396       .  A
C1505      C1510   1.403       .  A
C1505      H1521   1.084       .  S
C1506      C1507   1.402       .  A
C1506      H1522   1.084       .  S
C1507      C1517   1.398   1_455  A
C1507      C1508   1.411       .  A
C1508      C1514   1.412       .  A
C1508      C1509   1.410       .  A
C1509      C1511   1.413       .  A
C1509      C1510   1.411       .  A
C1510      C1518   1.398       .  A
C1511      C1520   1.406       .  A
C1511      C1512   1.404       .  A
C1512      C1513   1.401       .  A
C1512      H1523   1.083       .  S
C1513      C1514   1.404       .  A
C1513      H1524   1.083       .  S
C1514      C1515   1.405   1_455  A
C1515      C1516   1.407       .  A
C1515      H1525   1.084       .  S
C1516      C1517   1.405       .  A
C1517      H1526   1.085       .  S
C1518      C1519   1.404       .  A
C1518      H1527   1.085       .  S
C1519      C1520   1.406       .  A
C1520      H1528   1.084       .  S
C1529      C1530   1.397       .  A
C1529      C1534   1.403       .  A
C1530      C1531   1.403       .  A
C1531      C1541   1.399       .  A
C1531      C1532   1.411       .  A
C1532      C1538   1.412       .  A
C1532      C1533   1.411       .  A
C1533      C1535   1.412       .  A
C1533      C1534   1.412       .  A
C1534      C1542   1.399       .  A
C1535      C1544   1.405       .  A
C1535      C1536   1.404       .  A
C1536      C1537   1.400       .  A
C1536      H1547   1.083       .  S
C1537      C1538   1.404       .  A
C1537      H1548   1.083       .  S
C1538      C1539   1.405       .  A
C1539      C1540   1.407       .  A
C1539      H1549   1.084       .  S
C1540      C1541   1.406       .  A
C1541      H1550   1.085       .  S
C1542      C1543   1.404       .  A
C1543      C1544   1.406       .  A
C1544      H1552   1.084       .  S
H1545      C2521   1.084       .  S
H1546      C2522   1.084       .  S
H1551      C2534   1.085       .  S
C1553      C1554   1.398       .  A
C1553      C1558   1.403       .  A
C1553      H1569   1.084       .  S
C1554      C1555   1.403       .  A
C1554      H1570   1.084       .  S
C1555      C1565   1.402       .  A
C1555      C1556   1.412       .  A
C1556      C2554   1.412       .  A
C1556      C1557   1.411       .  A
C1557      C2551   1.412       .  A
C1557      C1558   1.411       .  A
C1558      C1566   1.402       .  A
C1559      C1568   1.404       .  A
C1559      C1560   1.404       .  A
C1560      C1561   1.399       .  A
C1560      H1571   1.083       .  S
C1561      C1562   1.404       .  A
C1561      H1572   1.084       .  S
C1563      C2554   1.403       .  A
C1563      C1564   1.406       .  A
C1563      H2565   1.085       .  S
C1564      C1565   1.404       .  A
C1565      H1574   1.085       .  S
C1566      C2559   1.406       .  A
C1566      H1575   1.085       .  S
C1567      C1568   1.406       .  A
C1568      H1576   1.084       .  S
C1577      C1578   1.398       .  A
C1577      C1582   1.403       .  A
C1577      H1593   1.084       .  S
C1578      C1579   1.403   1_455  A
C1578      H1594   1.084   1_455  S
C1579      C1589   1.401       .  A
C1579      C1580   1.412   1_655  A
C1580      C1586   1.412   1_455  A
C1580      C1581   1.412       .  A
C1581      C1583   1.412       .  A
C1581      C1582   1.412       .  A
C1582      C1590   1.401       .  A
C1583      C1592   1.406       .  A
C1583      C2576   1.404       .  A
C1584      C1585   1.401       .  A
C1584      H1595   1.084       .  S
C1585      H1596   1.083       .  S
C1586      C2577   1.404   1_655  A
C1586      C2579   1.406       .  A
C1587      H1597   1.084       .  S
C1588      C2579   1.405       .  A
C1588      C1589   1.404       .  A
C1589      H1598   1.085       .  S
C1590      C1591   1.405       .  A
C1590      H1599   1.085       .  S
C1591      C1592   1.407       .  A
C1592      H1600   1.084       .  S
C1601      C1602   1.398       .  A
C1601      C1606   1.403       .  A
C1601      H1617   1.083       .  S
C1602      C1603   1.403       .  A
C1602      H1618   1.084       .  S
C1603      C1613   1.402       .  A
C1603      C1604   1.411       .  A
C1604      C1610   1.413       .  A
C1604      C1605   1.413       .  A
C1605      C1607   1.411       .  A
C1605      C1606   1.412       .  A
C1606      C1614   1.403       .  A
C1607      C1616   1.406       .  A
C1607      C1608   1.405       .  A
C1608      C1609   1.401       .  A
C1608      H1619   1.083       .  S
C1609      C1610   1.404       .  A
C1609      H1620   1.083       .  S
C1610      C1611   1.407       .  A
C1611      C1612   1.405       .  A
C1611      H1621   1.084       .  S
C1612      C1613   1.405       .  A
C1613      H1622   1.085       .  S
C1614      C1615   1.406       .  A
C1614      H1623   1.084       .  S
C1615      C1616   1.408       .  A
C1616      H1624   1.084       .  S
C1625      C1626   1.397       .  A
C1625      C1630   1.403       .  A
C1625      H1641   1.084       .  S
C1626      C1627   1.403       .  A
C1626      H1642   1.084       .  S
C1627      C1637   1.400       .  A
C1628      C2619   1.411       .  A
C1628      C1634   1.412       .  A
C1628      C2621   1.412       .  A
C1629      C1630   1.411       .  A
C1630      C1638   1.399       .  A
C1631      C2621   1.413       .  A
C1631      C1640   1.407       .  A
C1631      C1632   1.405       .  A
C1632      C1633   1.402       .  A
C1632      H1643   1.083       .  S
C1633      C1634   1.405       .  A
C1633      H1644   1.083       .  S
C1634      C1635   1.407       .  A
C1635      C1636   1.408       .  A
C1635      H1645   1.084       .  S
C1636      C2629   1.406       .  A
C1637      H1646   1.085       .  S
C1638      C1639   1.404       .  A
C1638      H1647   1.085       .  S
C1640      C2631   1.406       .  A
C1640      H1648   1.084       .  S
C1649      C1650   1.399       .  A
C1649      C1654   1.403       .  A
C1650      C1651   1.404       .  A
C1651      C1661   1.403       .  A
C1651      C1652   1.412       .  A
C1652      C1658   1.411       .  A
C1652      C1653   1.410       .  A
C1653      C1655   1.412       .  A
C1653      C1654   1.412       .  A
C1654      C1662   1.402       .  A
C1655      C1664   1.400       .  A
C1655      C1656   1.403       .  A
C1656      C1657   1.397       .  A
C1656      H1667   1.084       .  S
C1657      C1658   1.403       .  A
C1657      H1668   1.084       .  S
C1658      C1659   1.400       .  A
C1659      C1660   1.405       .  A
C1659      H1669   1.085       .  S
C1660      C1661   1.405       .  A
C1661      H1670   1.084       .  S
C1662      C1663   1.404       .  A
C1662      H1671   1.085       .  S
C1663      C1664   1.404       .  A
C1664      H1672   1.085       .  S
H1665      C2641   1.083       .  S
H1666      C2642   1.083       .  S
C1673      C1674   1.400       .  A
C1673      C1678   1.404       .  A
C1673      H1689   1.083       .  S
C1674      C1675   1.404       .  A
C1674      H1690   1.084       .  S
C1675      C1685   1.403       .  A
C1675      C1676   1.411       .  A
C1676      C1682   1.412       .  A
C1676      C1677   1.412       .  A
C1677      C1679   1.411       .  A
C1677      C1678   1.413       .  A
C1678      C1686   1.405       .  A
C1679      C1688   1.402       .  A
C1679      C1680   1.404       .  A
C1680      C1681   1.399       .  A
C1680      H1691   1.084       .  S
C1681      C1682   1.403       .  A
C1681      H1692   1.083       .  S
C1682      C1683   1.403       .  A
C1683      C1684   1.405       .  A
C1683      H1693   1.084       .  S
C1684      C1685   1.407       .  A
C1685      H1694   1.084       .  S
C1686      C1687   1.405       .  A
C1686      H1695   1.084       .  S
C1687      C1688   1.406       .  A
C1688      H1696   1.085       .  S
C1697      C1698   1.402       .  A
C1697      C1702   1.405   1_545  A
C1697      H1713   1.083   1_545  S
C1698      C1699   1.405       .  A
C1698      H1714   1.083       .  S
C1699      C1709   1.409       .  A
C1699      C1700   1.412       .  A
C1700      C1706   1.411       .  A
C1700      C1701   1.414       .  A
C1701      C1703   1.411   1_545  A
C1701      C1702   1.413   1_545  A
C1702      C1710   1.409       .  A
C1703      C1712   1.400       .  A
C1703      C1704   1.403   1_565  A
C1704      C1705   1.397       .  A
C1704      H1715   1.084       .  S
C1705      C1706   1.403       .  A
C1705      H1716   1.084       .  S
C1706      C1707   1.401       .  A
C1707      C1708   1.406       .  A
C1707      H1717   1.085       .  S
C1708      C1709   1.408       .  A
C1709      H1718   1.084       .  S
C1710      C1711   1.407       .  A
C1710      H1719   1.084       .  S
C1711      C1712   1.405       .  A
C1712      H1720   1.085       .  S
C1721      C1722   1.399       .  A
C1721      C1726   1.404       .  A
C1721      H1737   1.083       .  S
C1722      C1723   1.404   1_455  A
C1722      H1738   1.084   1_455  S
C1723      C1733   1.403       .  A
C1723      C1724   1.412   1_655  A
C1724      C1730   1.412   1_455  A
C1724      C1725   1.410       .  A
C1725      C1727   1.411       .  A
C1725      C1726   1.412       .  A
C1726      C1734   1.403       .  A
C1727      C1736   1.400       .  A
C1727      C1728   1.403       .  A
C1728      C1729   1.397       .  A
C1728      H1739   1.084       .  S
C1729      C1730   1.403   1_455  A
C1729      H1740   1.084       .  S
C1730      C1731   1.400       .  A
C1731      C1732   1.404       .  A
C1731      H1741   1.085       .  S
C1732      C1733   1.405       .  A
C1733      H1742   1.085       .  S
C1734      C1735   1.406       .  A
C1734      H1743   1.084       .  S
C1735      C1736   1.406       .  A
C1736      H1744   1.085       .  S
C1745      C1746   1.402       .  A
C1745      C1750   1.405       .  A
C1745      H1761   1.083       .  S
C1746      C1747   1.404       .  A
C1746      H1762   1.083       .  S
C1747      C1757   1.408       .  A
C1747      C1748   1.413       .  A
C1748      C1754   1.411       .  A
C1748      C1749   1.413       .  A
C1749      C1751   1.411       .  A
C1749      C1750   1.412       .  A
C1750      C1758   1.407       .  A
C1751      C1760   1.401       .  A
C1751      C1752   1.403       .  A
C1752      C1753   1.397       .  A
C1752      H1763   1.084       .  S
C1753      C1754   1.403       .  A
C1753      H1764   1.084       .  S
C1754      C1755   1.401       .  A
C1755      C1756   1.405       .  A
C1755      H1765   1.085       .  S
C1756      C1757   1.407       .  A
C1757      H1766   1.084       .  S
C1758      C1759   1.408       .  A
C1758      H1767   1.084       .  S
C1759      C1760   1.406       .  A
C1760      H1768   1.084       .  S
C1769      C1770   1.403       .  A
C1769      H1785   1.083   1_455  S
C1770      H1786   1.083       .  S
C1771      C2762   1.405       .  A
C1771      C2773   1.410       .  A
C1771      C1772   1.412       .  A
C1772      C1778   1.411       .  A
C1772      C1773   1.413       .  A
C1773      C1775   1.411   1_455  A
C1773      C1774   1.413   1_455  A
C1774      C2761   1.405   1_655  A
C1774      C1782   1.409       .  A
C1775      C1784   1.399       .  A
C1775      C1776   1.402   1_655  A
C1776      C1777   1.396       .  A
C1776      H1787   1.084   1_455  S
C1777      C1778   1.403       .  A
C1777      H1788   1.084       .  S
C1778      C1779   1.399       .  A
C1779      C1780   1.406       .  A
C1779      H1789   1.084       .  S
C1780      C2773   1.409       .  A
C1781      H1790   1.084       .  S
C1782      C1783   1.408       .  A
C1782      H1791   1.084       .  S
C1783      C1784   1.404       .  A
C1784      H1792   1.085       .  S
C1793      C1794   1.400       .  A
C1793      C1798   1.404       .  A
C1793      H1809   1.083       .  S
C1794      C1795   1.404       .  A
C1794      H1810   1.084       .  S
C1795      C1805   1.405       .  A
C1795      C1796   1.412       .  A
C1796      C1802   1.412       .  A
C1796      C1797   1.413       .  A
C1797      C1799   1.411       .  A
C1797      C1798   1.412       .  A
C1798      C1806   1.406       .  A
C1799      C1808   1.402       .  A
C1799      C1800   1.403       .  A
C1800      C1801   1.399       .  A
C1800      H1811   1.084       .  S
C1801      C1802   1.403       .  A
C1801      H1812   1.083       .  S
C1802      C1803   1.403       .  A
C1803      C1804   1.405       .  A
C1803      H1813   1.084       .  S
C1804      C1805   1.407       .  A
C1805      H1814   1.084       .  S
C1806      C1807   1.406       .  A
C1806      H1815   1.084       .  S
C1807      C1808   1.406       .  A
C1808      H1816   1.085       .  S
C1817      C1818   1.396       .  A
C1817      C1822   1.402       .  A
C1817      H1833   1.084       .  S
C1818      C1819   1.403       .  A
C1818      H1834   1.084       .  S
C1819      C1829   1.399       .  A
C1819      C1820   1.411       .  A
C1820      C1826   1.412       .  A
C1820      C1821   1.410       .  A
C1821      C1823   1.412   1_545  A
C1821      C1822   1.411       .  A
C1822      C1830   1.398   1_545  A
C1823      C1832   1.404       .  A
C1823      C1824   1.404   1_565  A
C1824      C1825   1.400       .  A
C1824      H1835   1.084   1_545  S
C1825      C1826   1.404       .  A
C1825      H1836   1.083       .  S
C1826      C1827   1.404       .  A
C1827      C1828   1.406       .  A
C1827      H1837   1.084       .  S
C1828      C1829   1.405       .  A
C1829      H1838   1.085       .  S
C1830      C1831   1.403       .  A
C1830      H1839   1.085       .  S
C1831      C1832   1.405       .  A
C1832      H1840   1.084       .  S
C1841      C1842   1.400       .  A
C1841      C1846   1.404       .  A
C1841      H1857   1.083       .  S
C1842      C1843   1.404       .  A
C1842      H1858   1.083       .  S
C1843      C1853   1.405       .  A
C1843      C1844   1.412       .  A
C1844      C1850   1.411       .  A
C1844      C1845   1.411       .  A
C1845      C1847   1.411       .  A
C1845      C1846   1.412       .  A
C1846      C1854   1.405       .  A
C1847      C1856   1.399       .  A
C1847      C1848   1.403       .  A
C1848      C1849   1.396       .  A
C1849      C1850   1.403       .  A
C1850      C1851   1.399       .  A
C1851      C1852   1.404       .  A
C1852      C1853   1.406       .  A
C1853      H1862   1.084       .  S
C1854      C1855   1.407       .  A
C1854      H1863   1.084       .  S
C1855      C1856   1.405       .  A
C1856      H1864   1.085       .  S
H1859      C2840   1.084       .  S
H1860      C2841   1.084       .  S
H1861      C2843   1.085       .  S
C1865      C1866   1.398       .  A
C1865      C1870   1.403       .  A
C1865      H1881   1.084       .  S
C1866      C1867   1.404       .  A
C1866      H1882   1.084       .  S
C1867      C1877   1.401       .  A
C1867      C1868   1.411       .  A
C1868      C1874   1.412       .  A
C1868      C1869   1.410       .  A
C1869      C1871   1.411       .  A
C1869      C1870   1.413       .  A
C1870      C1878   1.403       .  A
C1871      C1880   1.400       .  A
C1871      C1872   1.403       .  A
C1872      C1873   1.398       .  A
C1872      H1883   1.084       .  S
C1873      C1874   1.403       .  A
C1873      H1884   1.084       .  S
C1874      C1875   1.402       .  A
C1875      C1876   1.405       .  A
C1875      H1885   1.085       .  S
C1876      C1877   1.406       .  A
C1877      H1886   1.085       .  S
C1878      C1879   1.404       .  A
C1878      H1887   1.085       .  S
C1879      C1880   1.404       .  A
C1880      H1888   1.085       .  S
C1889      C1890   1.400       .  A
C1889      C1894   1.404       .  A
C1889      H1905   1.083       .  S
C1890      C1891   1.404       .  A
C1890      H1906   1.084       .  S
C1891      C1892   1.412       .  A
C1892      C1893   1.409       .  A
C1893      C1895   1.412       .  A
C1893      C1894   1.413       .  A
C1894      C1902   1.404       .  A
C1895      C1904   1.398       .  A
C1895      C1896   1.402       .  A
C1896      H1907   1.084       .  S
C1897      C2888   1.396       .  A
C1897      C1898   1.403       .  A
C1897      H1908   1.084       .  S
C1898      C2884   1.412       .  A
C1898      C1899   1.398       .  A
C1899      C1900   1.403       .  A
C1899      H1909   1.085       .  S
C1900      C1901   1.405       .  A
C1901      C2883   1.403       .  A
C1901      H1910   1.085       .  S
C1902      C1903   1.404       .  A
C1902      H1911   1.084       .  S
C1903      C1904   1.403       .  A
C1904      H1912   1.085       .  S
C1913      C1914   1.401       .  A
C1913      C1918   1.404       .  A
C1913      H1929   1.083       .  S
C1914      C1915   1.405       .  A
C1914      H1930   1.083       .  S
C1915      C1925   1.407       .  A
C1915      C1916   1.413       .  A
C1916      C2914   1.412       .  A
C1916      C2909   1.412       .  A
C1917      C1919   1.411       .  A
C1918      C2909   1.413       .  A
C1918      C1926   1.407       .  A
C1919      C1928   1.400       .  A
C1919      C1920   1.403       .  A
C1920      C1921   1.397       .  A
C1920      H1931   1.084       .  S
C1921      C1922   1.403       .  A
C1921      H1932   1.084       .  S
C1922      C1923   1.400       .  A
C1923      H1933   1.085       .  S
C1924      C2915   1.404       .  A
C1924      C1925   1.406       .  A
C1925      H1934   1.084       .  S
C1926      C2919   1.406       .  A
C1926      H1935   1.084       .  S
C1927      C1928   1.405       .  A
C1928      H1936   1.085       .  S
C1937      C1938   1.399       .  A
C1937      C1942   1.404       .  A
C1937      H1953   1.084       .  S
C1938      C1939   1.404       .  A
C1938      H1954   1.083       .  S
C1939      C1949   1.404       .  A
C1940      C2931   1.412       .  A
C1940      C1946   1.411       .  A
C1940      C1941   1.413       .  A
C1941      C1943   1.413       .  A
C1941      C2934   1.412       .  A
C1943      C1952   1.405       .  A
C1943      C1944   1.404       .  A
C1944      C1945   1.400       .  A
C1944      H1955   1.084       .  S
C1945      C1946   1.404       .  A
C1945      H1956   1.083       .  S
C1946      C1947   1.404       .  A
C1947      C1948   1.408       .  A
C1947      H1957   1.084       .  S
C1948      C2941   1.407       .  A
C1949      H1958   1.084       .  S
C1950      C2934   1.403       .  A
C1950      C1951   1.405       .  A
C1950      H2951   1.085       .  S
C1951      C1952   1.405       .  A
C1952      H1960   1.084       .  S
C1961      C1962   1.397       .  A
C1961      C1966   1.403       .  A
C1961      H1977   1.084       .  S
C1962      C1963   1.403       .  A
C1962      H1978   1.084       .  S
C1963      C1973   1.401       .  A
C1963      C1964   1.412       .  A
C1964      C1970   1.411       .  A
C1964      C1965   1.410       .  A
C1965      C1967   1.413       .  A
C1965      C1966   1.411       .  A
C1966      C1974   1.399       .  A
C1967      C1976   1.403       .  A
C1967      C1968   1.403       .  A
C1968      C1969   1.399       .  A
C1968      H1979   1.083       .  S
C1969      C1970   1.403       .  A
C1969      H1980   1.084       .  S
C1970      C1971   1.401       .  A
C1971      C1972   1.405       .  A
C1971      H1981   1.085       .  S
C1972      C1973   1.404       .  A
C1973      H1982   1.085       .  S
C1974      C1975   1.405       .  A
C1974      H1983   1.085       .  S
C1975      C1976   1.403       .  A
C1976      H1984   1.084       .  S
O1985     Ni1993   1.917       .  S
O1985      C1995   1.281   1_554  A
O1986     Ni1993   1.925       .  S
O1986      C1996   1.283   1_554  A
O1987     Ni1993   1.914       .  S
O1987      C1997   1.280   1_554  A
O1988     Ni1993   1.914       .  S
O1988      C1998   1.281   1_554  A
O1989     Ni1994   1.926       .  S
O1989      C1998   1.282       .  A
O1990     Ni1994   1.924       .  S
O1990      C1997   1.283       .  A
O1991     Ni1994   1.903       .  S
O1991      C1996   1.278       .  A
O1992     Ni1994   1.910       .  S
O1992      C1995   1.280       .  A
Ni1993    Ni1994   2.391   1_554  S
C1995      C2892   1.470       .  S
C1996      C2967   1.470       .  S
C1997      C2943   1.474       .  S
C1998      C2916   1.475       .  S
O1999     Ni2007   1.917       .  S
O1999      C2009   1.281       .  A
O2000     Ni2007   1.917       .  S
O2000      C2010   1.282       .  A
O2001     Ni2007   1.910       .  S
O2001      C2011   1.280       .  A
O2002     Ni2007   1.910       .  S
O2002      C2012   1.281       .  A
O2003     Ni2008   1.922       .  S
O2003      C2012   1.282       .  A
O2004     Ni2008   1.920       .  S
O2004      C2011   1.282       .  A
O2005     Ni2008   1.911       .  S
O2005      C2010   1.280       .  A
O2006     Ni2008   1.911       .  S
O2006      C2009   1.280       .  A
Ni2007    Ni2008   2.389       .  S
C2009      C2823   1.469       .  S
C2010      C2964   1.471       .  S
C2011      C2871   1.469       .  S
C2012      C2847   1.477       .  S
O2013     Ni2021   1.927       .  S
O2013      C2023   1.283       .  A
O2014     Ni2021   1.921       .  S
O2015     Ni2021   1.917       .  S
O2015      C2025   1.281       .  A
O2016     Ni2021   1.908       .  S
O2016      C2026   1.280       .  A
O2017     Ni2022   1.932       .  S
O2018     Ni2022   1.922       .  S
O2019     Ni2022   1.920       .  S
O2019      C2024   1.281       .  A
O2020     Ni2022   1.912       .  S
C2023      C2748   1.477       .  S
C2024      C2796   1.478       .  S
C2025      C2940   1.481       .  S
C2026      C2772   1.482       .  S
O2027     Ni2035   1.934       .  S
O2027      C2037   1.284       .  A
O2028     Ni2035   1.926       .  S
O2028      C2038   1.283       .  A
O2029     Ni2035   1.910       .  S
O2029      C2039   1.280       .  A
O2030     Ni2035   1.910       .  S
O2030      C2040   1.280       .  A
O2031     Ni2036   1.920       .  S
O2031      C2040   1.282       .  A
O2032     Ni2036   1.920       .  S
O2032      C2039   1.282       .  A
O2033     Ni2036   1.915       .  S
O2033      C2038   1.281       .  A
O2034     Ni2036   1.909       .  S
O2034      C2037   1.280       .  A
Ni2035    Ni2036   2.389       .  S
C2037      C2703   1.479       .  S
C2038      C2799   1.478       .  S
C2039      C2868   1.473       .  S
C2040      C2727   1.475       .  S
O2041     Ni2049   1.925       .  S
O2041      C2051   1.282       .  A
O2042     Ni2049   1.926       .  S
O2042      C2052   1.283       .  A
O2043     Ni2049   1.909       .  S
O2043      C2053   1.280       .  A
O2044     Ni2049   1.918       .  S
O2044      C2054   1.281       .  A
O2045     Ni2050   1.911       .  S
O2045      C2054   1.281       .  A
O2046     Ni2050   1.920       .  S
O2046      C2053   1.281       .  A
O2047     Ni2050   1.911       .  S
O2047      C2052   1.280       .  A
O2048     Ni2050   1.912       .  S
O2048      C2051   1.281       .  A
Ni2049    Ni2050   2.390       .  S
C2051      C2631   1.475       .  S
C2052      C2679   1.475       .  S
C2053      C2895   1.468       .  S
C2054      C2652   1.474       .  S
O2055     Ni2063   1.923       .  S
O2055      C2065   1.282       .  A
O2056     Ni2063   1.923       .  S
O2056      C2066   1.283       .  A
O2057     Ni2063   1.916       .  S
O2057      C2067   1.282       .  A
O2058     Ni2063   1.909       .  S
O2058      C2068   1.279       .  A
O2059     Ni2064   1.932       .  S
O2059      C2068   1.284       .  A
O2060     Ni2064   1.925       .  S
O2060      C2067   1.283       .  A
O2061     Ni2064   1.914       .  S
O2061      C2066   1.280       .  A
O2062     Ni2064   1.914       .  S
O2062      C2065   1.281       .  A
Ni2063    Ni2064   2.388       .  S
C2065      C2583   1.476       .  S
C2066      C2676   1.476       .  S
C2067      C2751   1.481       .  S
C2068      C2604   1.475       .  S
O2069     Ni2077   1.921       .  S
O2069      C2079   1.281       .  A
O2070     Ni2077   1.923       .  S
O2070      C2080   1.283       .  A
O2071     Ni2077   1.910       .  S
O2071      C2081   1.280       .  A
O2072     Ni2077   1.910       .  S
O2072      C2082   1.280       .  A
O2073     Ni2078   1.919       .  S
O2074      C2081   1.282       .  A
O2075     Ni2078   1.913       .  S
O2076      C2079   1.281       .  A
C2079      C2535   1.472       .  S
C2080      C2559   1.476       .  S
C2081      C2820   1.475       .  S
C2082      C2655   1.468       .  S
O2083     Ni2091   1.924       .  S
O2083      C2093   1.282       .  A
O2084     Ni2091   1.918       .  S
O2084      C2094   1.282       .  A
O2085     Ni2091   1.913       .  S
O2085      C2095   1.281       .  A
O2086     Ni2091   1.922       .  S
O2086      C2096   1.282       .  A
O2087     Ni2092   1.921       .  S
O2087      C2096   1.283       .  A
O2088     Ni2092   1.930       .  S
O2088      C2095   1.283       .  A
O2089     Ni2092   1.915       .  S
O2089      C2094   1.281       .  A
O2090     Ni2092   1.907       .  S
O2090      C2093   1.280       .  A
Ni2091    Ni2092   2.389       .  S
C2093      C2511   1.473       .  S
C2094      C2556   1.474       .  S
C2095      C2700   1.482       .  S
C2096      C2607   1.481       .  S
O2097     Ni2105   1.921       .  S
O2097      C2107   1.282   1_554  A
O2098     Ni2105   1.921       .  S
O2098      C2108   1.282   1_554  A
O2099     Ni2105   1.917       .  S
O2099      C2109   1.281   1_554  A
O2100     Ni2105   1.910       .  S
O2100      C2110   1.281   1_554  A
O2101     Ni2106   1.928       .  S
O2101      C2110   1.283       .  A
O2102     Ni2106   1.918       .  S
O2102      C2109   1.281       .  A
O2103     Ni2106   1.910       .  S
O2103      C2108   1.280       .  A
O2104     Ni2106   1.912       .  S
O2104      C2107   1.281       .  A
Ni2105    Ni2106   2.390   1_554  S
C2107      C2436   1.474       .  S
C2108      C2487   1.471       .  S
C2109      C2463   1.471       .  S
C2110      C2628   1.479       .  S
O2111     Ni2119   1.927       .  S
O2111      C2121   1.283       .  A
O2112     Ni2119   1.919       .  S
O2112      C2122   1.282       .  A
O2113     Ni2119   1.909       .  S
O2113      C2123   1.280       .  A
O2114     Ni2119   1.908       .  S
O2114      C2124   1.280       .  A
O2115     Ni2120   1.925       .  S
O2115      C2124   1.283       .  A
O2116     Ni2120   1.924       .  S
O2116      C2123   1.283       .  A
O2117     Ni2120   1.912       .  S
O2117      C2122   1.280       .  A
O2118     Ni2120   1.906       .  S
O2118      C2121   1.279       .  A
Ni2119    Ni2120   2.389       .  S
C2121      C2391   1.473       .  S
C2122      C2484   1.473       .  S
C2123      C2412   1.477       .  S
C2124      C2532   1.477       .  S
O2125     Ni2133   1.922       .  S
O2125      C2135   1.282       .  A
O2126     Ni2133   1.923       .  S
O2127     Ni2133   1.914       .  S
O2127      C2137   1.281       .  A
O2128     Ni2133   1.914       .  S
O2128      C2138   1.281       .  A
O2129     Ni2134   1.923       .  S
O2130     Ni2134   1.922       .  S
O2131     Ni2134   1.910       .  S
O2131      C2136   1.280       .  A
O2132     Ni2134   1.912       .  S
C2135      C2343   1.472       .  S
C2136      C2364   1.474       .  S
C2137      C2460   1.477       .  S
C2138      C2580   1.473       .  S
O2139     Ni2147   1.919       .  S
O2139      C2149   1.281       .  A
O2140     Ni2147   1.921       .  S
O2140      C2150   1.282       .  A
O2141     Ni2147   1.912       .  S
O2141      C2151   1.280       .  A
O2142     Ni2147   1.910       .  S
O2142      C2152   1.281       .  A
O2143     Ni2148   1.922       .  S
O2143      C2152   1.282       .  A
O2144     Ni2148   1.920       .  S
O2144      C2151   1.282       .  A
O2145     Ni2148   1.914       .  S
O2145      C2150   1.280       .  A
O2146     Ni2148   1.913       .  S
O2146      C2149   1.281       .  A
Ni2147    Ni2148   2.391       .  S
C2149      C2319   1.473       .  S
C2150      C2367   1.473       .  S
C2151      C2415   1.469       .  S
C2152      C2508   1.476       .  S
O2153     Ni2161   1.930       .  S
O2153      C2163   1.284       .  A
O2154     Ni2161   1.924       .  S
O2154      C2164   1.283       .  A
O2155     Ni2161   1.911       .  S
O2155      C2165   1.280       .  A
O2156     Ni2161   1.904       .  S
O2156      C2166   1.279       .  A
O2157     Ni2162   1.929       .  S
O2157      C2166   1.284       .  A
O2158     Ni2162   1.922       .  S
O2158      C2165   1.282       .  A
O2159     Ni2162   1.915       .  S
O2159      C2164   1.281       .  A
O2160     Ni2162   1.909       .  S
O2160      C2163   1.280       .  A
Ni2161    Ni2162   2.389       .  S
C2163      C2919   1.477       .  S
C2164      C2292   1.477       .  S
C2165      C2439   1.477       .  S
C2166      C2268   1.477       .  S
O2167     Ni2175   1.930       .  S
O2167      C2177   1.283       .  A
O2168     Ni2175   1.922       .  S
O2168      C2178   1.282       .  A
O2169     Ni2175   1.909       .  S
O2169      C2179   1.280       .  A
O2170     Ni2175   1.918       .  S
O2170      C2180   1.282       .  A
O2171     Ni2176   1.915       .  S
O2171      C2180   1.281       .  A
O2172     Ni2176   1.924       .  S
O2172      C2179   1.282       .  A
O2173     Ni2176   1.917       .  S
O2173      C2178   1.281       .  A
O2174     Ni2176   1.910       .  S
O2174      C2177   1.281       .  A
Ni2175    Ni2176   2.389       .  S
C2177      C2775   1.478       .  S
C2178      C2295   1.477       .  S
C2179      C2340   1.477       .  S
C2180      C2244   1.476       .  S
O2181     Ni2189   1.919       .  S
O2181      C2191   1.281       .  A
O2182     Ni2189   1.920       .  S
O2182      C2192   1.282       .  A
O2183     Ni2189   1.911       .  S
O2183      C2193   1.281       .  A
O2184     Ni2189   1.913       .  S
O2184      C2194   1.280       .  A
O2185     Ni2190   1.921       .  S
O2186     Ni2190   1.922       .  S
O2187     Ni2190   1.912       .  S
O2188      C2191   1.281       .  A
C2191      C2844   1.473       .  S
C2193      C2388   1.477       .  S
C2194      C2271   1.471       .  S
O2195     Ni2203   1.916       .  S
O2195      C2205   1.281       .  A
O2196     Ni2203   1.924       .  S
O2196      C2206   1.283       .  A
O2197     Ni2203   1.905       .  S
O2197      C2207   1.279       .  A
O2198     Ni2203   1.914       .  S
O2198      C2208   1.280       .  A
O2199     Ni2204   1.920       .  S
O2199      C2208   1.281       .  A
O2200     Ni2204   1.928       .  S
O2200      C2207   1.283       .  A
O2201     Ni2204   1.906       .  S
O2201      C2206   1.279       .  A
O2202     Ni2204   1.914       .  S
O2202      C2205   1.281       .  A
Ni2203    Ni2204   2.392       .  S
C2205      C2724   1.470       .  S
C2206      C2223   1.471       .  S
C2207      C2316   1.471       .  S
C2208      C2247   1.471       .  S
C2209      C2210   1.398       .  A
C2209      H2225   1.084       .  S
C2210      C2211   1.403       .  A
C2210      H2226   1.084       .  S
C2211      C2221   1.402       .  A
C2212      C2218   1.411       .  A
C2212      C2213   1.410       .  A
C2213      C2215   1.413       .  A
C2213      C2214   1.411   1_556  A
C2214      C2222   1.400       .  A
C2215      C2224   1.403       .  A
C2215      C2216   1.403       .  A
C2216      C2217   1.399       .  A
C2216      H2227   1.083       .  S
C2217      C2218   1.404       .  A
C2217      H2228   1.084       .  S
C2218      C2219   1.401       .  A
C2219      C2220   1.405   1_556  A
C2219      H2229   1.085       .  S
C2221      H2230   1.085       .  S
C2222      C2223   1.405   1_554  A
C2223      C2224   1.404       .  A
C2224      H2232   1.084       .  S
C2233      C2234   1.398       .  A
C2233      C2238   1.403       .  A
C2233      H2249   1.084       .  S
C2234      C2235   1.403       .  A
C2234      H2250   1.084       .  S
C2235      C2245   1.401       .  A
C2235      C2236   1.412       .  A
C2236      C2242   1.412       .  A
C2236      C2237   1.411       .  A
C2237      C2239   1.412       .  A
C2237      C2238   1.412       .  A
C2238      C2246   1.401       .  A
C2239      C2248   1.403       .  A
C2239      C2240   1.404   1_556  A
C2240      C2241   1.399       .  A
C2240      H2251   1.084       .  S
C2241      C2242   1.404   1_554  A
C2241      H2252   1.083       .  S
C2242      C2243   1.403       .  A
C2243      C2244   1.406       .  A
C2243      H2253   1.084   1_556  S
C2244      C2245   1.406       .  A
C2245      H2254   1.084       .  S
C2246      C2247   1.404       .  A
C2246      H2255   1.085       .  S
C2247      C2248   1.404       .  A
C2248      H2256   1.085   1_556  S
C2257      C2258   1.400       .  A
C2257      C2262   1.404       .  A
C2257      H2273   1.083       .  S
C2258      C2259   1.404       .  A
C2258      H2274   1.083       .  S
C2259      C2269   1.405       .  A
C2259      C2260   1.413       .  A
C2260      C2266   1.410       .  A
C2260      C2261   1.411       .  A
C2261      C2263   1.413       .  A
C2261      C2262   1.411       .  A
C2262      C2270   1.403       .  A
C2263      C2272   1.402       .  A
C2263      C2264   1.403       .  A
C2264      C2265   1.398       .  A
C2264      H2275   1.084       .  S
C2265      C2266   1.404       .  A
C2265      H2276   1.084       .  S
C2266      C2267   1.400       .  A
C2267      C2268   1.407       .  A
C2267      H2277   1.085       .  S
C2268      C2269   1.405       .  A
C2269      H2278   1.084       .  S
C2270      C2271   1.405       .  A
C2270      H2279   1.085       .  S
C2271      C2272   1.403       .  A
C2272      H2280   1.085       .  S
C2281      C2282   1.399       .  A
C2281      C2286   1.404       .  A
C2281      H2297   1.083       .  S
C2282      C2283   1.404       .  A
C2282      H2298   1.084       .  S
C2283      C2293   1.403       .  A
C2283      C2284   1.411       .  A
C2284      C2290   1.412       .  A
C2284      C2285   1.412       .  A
C2285      C2287   1.412       .  A
C2285      C2286   1.412       .  A
C2286      C2294   1.404       .  A
C2287      C2296   1.404       .  A
C2287      C2288   1.404       .  A
C2288      C2289   1.399       .  A
C2288      H2299   1.084       .  S
C2289      C2290   1.404       .  A
C2290      C2291   1.404       .  A
C2291      C2292   1.405       .  A
C2291      H2301   1.084       .  S
C2292      C2293   1.406       .  A
C2293      H2302   1.085       .  S
C2294      C2295   1.405       .  A
C2294      H2303   1.084       .  S
C2295      C2296   1.406       .  A
C2296      H2304   1.085       .  S
C2305      C2306   1.397       .  A
C2305      C2310   1.403       .  A
C2305      H2321   1.084       .  S
C2306      C2307   1.403   1_545  A
C2306      H2322   1.084   1_545  S
C2307      C2317   1.398       .  A
C2307      C2308   1.411   1_565  A
C2308      C2314   1.413   1_545  A
C2308      C2309   1.411       .  A
C2309      C2311   1.412       .  A
C2309      C2310   1.412       .  A
C2310      C2318   1.400       .  A
C2311      C2320   1.405       .  A
C2311      C2312   1.404       .  A
C2312      C2313   1.401       .  A
C2312      H2323   1.084   1_556  S
C2313      C2314   1.404   1_545  A
C2313      H2324   1.083   1_556  S
C2314      C2315   1.406       .  A
C2315      C2316   1.404       .  A
C2315      H2325   1.084   1_556  S
C2316      C2317   1.404       .  A
C2317      H2326   1.085       .  S
C2318      C2319   1.404       .  A
C2318      H2327   1.085       .  S
C2319      C2320   1.406       .  A
C2320      H2328   1.084       .  S
C2329      C2330   1.397       .  A
C2329      C2334   1.403   1_554  A
C2329      H2345   1.084       .  S
C2330      C2331   1.403   1_554  A
C2330      H2346   1.084       .  S
C2331      C2341   1.399       .  A
C2331      C2332   1.411       .  A
C2332      C2338   1.412       .  A
C2332      C2333   1.411       .  A
C2333      C2335   1.412       .  A
C2333      C2334   1.412       .  A
C2334      C2342   1.400       .  A
C2335      C2344   1.405       .  A
C2335      C2336   1.404       .  A
C2336      C2337   1.400       .  A
C2336      H2347   1.083       .  S
C2337      C2338   1.404       .  A
C2337      H2348   1.083       .  S
C2338      C2339   1.405       .  A
C2339      C2340   1.407       .  A
C2339      H2349   1.084       .  S
C2340      C2341   1.406       .  A
C2341      H2350   1.085   1_556  S
C2342      C2343   1.404       .  A
C2342      H2351   1.085   1_556  S
C2343      C2344   1.405       .  A
C2344      H2352   1.084       .  S
C2353      C2354   1.400       .  A
C2353      C2358   1.404       .  A
C2353      H2369   1.084       .  S
C2354      C2355   1.404       .  A
C2354      H2370   1.083       .  S
C2355      C2365   1.404       .  A
C2355      C2356   1.413       .  A
C2356      C2362   1.411       .  A
C2356      C2357   1.411       .  A
C2357      C2359   1.412       .  A
C2357      C2358   1.412       .  A
C2358      C2366   1.403       .  A
C2359      C2368   1.402       .  A
C2359      C2360   1.403       .  A
C2360      C2361   1.398       .  A
C2360      H2371   1.083       .  S
C2361      C2362   1.403       .  A
C2361      H2372   1.084       .  S
C2362      C2363   1.401       .  A
C2363      C2364   1.405       .  A
C2363      H2373   1.085       .  S
C2364      C2365   1.405       .  A
C2365      H2374   1.084       .  S
C2366      C2367   1.406       .  A
C2366      H2375   1.085       .  S
C2367      C2368   1.404       .  A
C2368      H2376   1.085       .  S
C2377      C2378   1.401       .  A
C2377      C2382   1.404       .  A
C2377      H2393   1.083       .  S
C2378      C2379   1.405   1_545  A
C2378      H2394   1.083       .  S
C2379      C2389   1.405       .  A
C2379      C2380   1.412   1_565  A
C2380      C2386   1.411   1_545  A
C2380      C2381   1.411       .  A
C2381      C2383   1.411       .  A
C2381      C2382   1.413       .  A
C2382      C2390   1.406       .  A
C2383      C2392   1.398       .  A
C2383      C2384   1.403       .  A
C2384      C2385   1.396       .  A
C2384      H2395   1.084       .  S
C2385      C2386   1.403   1_545  A
C2385      H2396   1.084   1_545  S
C2386      C2387   1.399       .  A
C2387      C2388   1.405       .  A
C2387      H2397   1.085       .  S
C2388      C2389   1.407       .  A
C2389      H2398   1.084       .  S
C2390      C2391   1.405       .  A
C2390      H2399   1.084       .  S
C2391      C2392   1.404       .  A
C2392      H2400   1.085       .  S
C2401      C2402   1.398       .  A
C2401      C2406   1.403       .  A
C2401      H2417   1.084       .  S
C2402      C2403   1.404       .  A
C2402      H2418   1.084       .  S
C2403      C2413   1.401       .  A
C2403      C2404   1.411       .  A
C2404      C2410   1.412       .  A
C2404      C2405   1.411       .  A
C2405      C2407   1.412       .  A
C2405      C2406   1.413       .  A
C2406      C2414   1.402       .  A
C2407      C2416   1.402       .  A
C2407      C2408   1.404       .  A
C2408      C2409   1.399       .  A
C2408      H2419   1.084       .  S
C2409      C2410   1.404       .  A
C2409      H2420   1.083       .  S
C2410      C2411   1.404       .  A
C2411      C2412   1.405       .  A
C2411      H2421   1.084       .  S
C2412      C2413   1.407       .  A
C2413      H2422   1.085       .  S
C2414      C2415   1.403       .  A
C2414      H2423   1.085       .  S
C2415      C2416   1.404       .  A
C2416      H2424   1.085       .  S
C2425      C2426   1.400       .  A
C2425      C2430   1.404       .  A
C2425      H2441   1.083       .  S
C2426      C2427   1.404       .  A
C2426      H2442   1.083       .  S
C2427      C2437   1.405       .  A
C2427      C2428   1.412       .  A
C2428      C2429   1.411       .  A
C2429      C2431   1.411       .  A
C2429      C2430   1.412       .  A
C2430      C2438   1.405       .  A
C2431      C2440   1.400       .  A
C2432      C2433   1.397       .  A
C2432      H2443   1.084       .  S
C2433      C2434   1.403       .  A
C2433      H2444   1.084       .  S
C2434      C2435   1.400       .  A
C2435      C2436   1.405       .  A
C2435      H2445   1.085       .  S
C2437      H2446   1.084       .  S
C2438      C2439   1.406       .  A
C2438      H2447   1.084       .  S
C2439      C2440   1.406       .  A
C2440      H2448   1.085       .  S
C2449      C2450   1.399       .  A
C2449      C2454   1.403       .  A
C2449      H2465   1.084       .  S
C2450      C2451   1.404       .  A
C2450      H2466   1.083       .  S
C2451      C2461   1.402       .  A
C2451      C2452   1.411       .  A
C2452      C2453   1.412       .  A
C2453      C2454   1.412       .  A
C2454      C2462   1.403       .  A
C2455      C2456   1.404       .  A
C2456      C2457   1.399       .  A
C2456      H2467   1.084       .  S
C2457      C2458   1.404       .  A
C2457      H2468   1.083       .  S
C2458      C2459   1.404       .  A
C2459      H2469   1.084       .  S
C2460      C2461   1.406       .  A
C2461      H2470   1.084       .  S
C2462      C2463   1.404       .  A
C2462      H2471   1.085       .  S
C2463      C2464   1.404   1_556  A
C2473      C2474   1.399   1_554  A
C2473      C2478   1.403   1_554  A
C2473      H2489   1.083       .  S
C2474      C2475   1.404       .  A
C2474      H2490   1.084   1_556  S
C2475      C2485   1.402       .  A
C2475      C2476   1.411       .  A
C2476      C2482   1.412       .  A
C2476      C2477   1.410       .  A
C2477      C2479   1.411       .  A
C2477      C2478   1.413       .  A
C2478      C2486   1.403       .  A
C2479      C2488   1.401       .  A
C2479      C2480   1.403       .  A
C2480      C2481   1.398       .  A
C2480      H2491   1.084       .  S
C2481      C2482   1.403       .  A
C2481      H2492   1.084       .  S
C2482      C2483   1.402       .  A
C2483      C2484   1.404       .  A
C2483      H2493   1.085       .  S
C2484      C2485   1.406       .  A
C2485      H2494   1.085       .  S
C2486      C2487   1.404       .  A
C2486      H2495   1.084   1_556  S
C2487      C2488   1.405       .  A
C2488      H2496   1.085       .  S
C2497      C2498   1.396       .  A
C2497      C2502   1.403       .  A
C2497      H2513   1.084       .  S
C2498      C2499   1.402       .  A
C2498      H2514   1.084       .  S
C2499      C2509   1.398   1_455  A
C2499      C2500   1.411       .  A
C2500      C2506   1.412       .  A
C2500      C2501   1.410       .  A
C2501      C2503   1.413       .  A
C2501      C2502   1.411       .  A
C2502      C2510   1.398       .  A
C2503      C2512   1.406       .  A
C2503      C2504   1.404       .  A
C2504      C2505   1.401       .  A
C2504      H2515   1.083       .  S
C2505      C2506   1.404       .  A
C2505      H2516   1.083       .  S
C2506      C2507   1.405   1_455  A
C2507      C2508   1.407       .  A
C2507      H2517   1.084       .  S
C2508      C2509   1.405       .  A
C2509      H2518   1.085       .  S
C2510      C2511   1.404       .  A
C2510      H2519   1.085       .  S
C2511      C2512   1.406       .  A
C2512      H2520   1.084       .  S
C2521      C2522   1.397       .  A
C2521      C2526   1.403       .  A
C2522      C2523   1.403       .  A
C2523      C2533   1.399       .  A
C2523      C2524   1.411       .  A
C2524      C2530   1.412       .  A
C2524      C2525   1.411       .  A
C2525      C2527   1.412       .  A
C2525      C2526   1.412       .  A
C2526      C2534   1.399       .  A
C2527      C2536   1.405       .  A
C2527      C2528   1.404       .  A
C2528      C2529   1.400       .  A
C2528      H2539   1.083       .  S
C2529      C2530   1.404       .  A
C2529      H2540   1.083       .  S
C2530      C2531   1.405       .  A
C2531      C2532   1.407       .  A
C2531      H2541   1.084       .  S
C2532      C2533   1.406       .  A
C2533      H2542   1.085       .  S
C2534      C2535   1.404       .  A
C2535      C2536   1.406       .  A
C2536      H2544   1.084       .  S
C2545      C2546   1.398       .  A
C2545      C2550   1.403       .  A
C2545      H2561   1.084       .  S
C2546      C2547   1.403       .  A
C2546      H2562   1.084       .  S
C2547      C2557   1.402       .  A
C2547      C2548   1.412       .  A
C2548      C2549   1.411       .  A
C2549      C2550   1.411       .  A
C2550      C2558   1.402       .  A
C2551      C2560   1.404       .  A
C2551      C2552   1.404       .  A
C2552      C2553   1.399       .  A
C2552      H2563   1.083       .  S
C2553      C2554   1.404       .  A
C2553      H2564   1.084       .  S
C2555      C2556   1.406       .  A
C2556      C2557   1.404       .  A
C2557      H2566   1.084       .  S
C2558      H2567   1.085       .  S
C2559      C2560   1.406       .  A
C2560      H2568   1.084       .  S
C2569      C2570   1.398       .  A
C2569      C2574   1.403       .  A
C2569      H2585   1.084       .  S
C2570      C2571   1.403   1_455  A
C2570      H2586   1.084   1_455  S
C2571      C2581   1.401       .  A
C2571      C2572   1.412   1_655  A
C2572      C2578   1.412   1_455  A
C2572      C2573   1.412       .  A
C2573      C2575   1.412       .  A
C2573      C2574   1.412       .  A
C2574      C2582   1.401       .  A
C2575      C2584   1.406       .  A
C2576      C2577   1.401       .  A
C2576      H2587   1.084       .  S
C2577      H2588   1.083       .  S
C2579      H2589   1.084       .  S
C2580      C2581   1.404       .  A
C2581      H2590   1.085       .  S
C2582      C2583   1.405       .  A
C2582      H2591   1.085       .  S
C2583      C2584   1.407       .  A
C2584      H2592   1.084   1_556  S
C2593      C2594   1.398       .  A
C2593      C2598   1.403       .  A
C2593      H2609   1.084   1_556  S
C2594      C2595   1.403       .  A
C2594      H2610   1.084   1_556  S
C2595      C2605   1.402       .  A
C2595      C2596   1.411       .  A
C2596      C2602   1.413       .  A
C2596      C2597   1.413       .  A
C2597      C2599   1.411       .  A
C2597      C2598   1.412       .  A
C2598      C2606   1.403       .  A
C2599      C2608   1.406       .  A
C2599      C2600   1.405       .  A
C2600      C2601   1.401       .  A
C2600      H2611   1.083       .  S
C2601      C2602   1.404       .  A
C2601      H2612   1.083       .  S
C2602      C2603   1.407       .  A
C2603      C2604   1.405       .  A
C2603      H2613   1.084       .  S
C2604      C2605   1.405       .  A
C2605      H2614   1.085       .  S
C2606      C2607   1.406       .  A
C2606      H2615   1.084       .  S
C2607      C2608   1.408       .  A
C2608      H2616   1.084       .  S
C2617      C2618   1.397       .  A
C2617      C2622   1.403       .  A
C2617      H2633   1.084       .  S
C2618      C2619   1.403       .  A
C2618      H2634   1.084       .  S
C2619      C2629   1.400       .  A
C2620      C2626   1.412       .  A
C2621      C2622   1.411       .  A
C2622      C2630   1.399       .  A
C2623      C2632   1.407       .  A
C2623      C2624   1.405       .  A
C2624      C2625   1.402       .  A
C2624      H2635   1.083       .  S
C2625      C2626   1.405       .  A
C2625      H2636   1.083       .  S
C2626      C2627   1.407       .  A
C2627      C2628   1.408       .  A
C2627      H2637   1.084       .  S
C2629      H2638   1.085       .  S
C2630      C2631   1.404       .  A
C2630      H2639   1.085       .  S
C2632      H2640   1.084       .  S
C2641      C2642   1.399       .  A
C2641      C2646   1.403       .  A
C2642      C2643   1.404       .  A
C2643      C2653   1.403       .  A
C2643      C2644   1.412       .  A
C2644      C2650   1.411       .  A
C2644      C2645   1.410       .  A
C2645      C2647   1.412       .  A
C2645      C2646   1.412       .  A
C2646      C2654   1.402       .  A
C2647      C2656   1.400       .  A
C2647      C2648   1.403       .  A
C2648      C2649   1.397       .  A
C2648      H2659   1.084       .  S
C2649      C2650   1.403       .  A
C2649      H2660   1.084       .  S
C2650      C2651   1.400       .  A
C2651      C2652   1.405       .  A
C2651      H2661   1.085       .  S
C2652      C2653   1.405       .  A
C2653      H2662   1.084       .  S
C2654      C2655   1.404       .  A
C2654      H2663   1.085       .  S
C2655      C2656   1.403       .  A
C2656      H2664   1.085       .  S
C2665      C2666   1.400       .  A
C2665      C2670   1.404       .  A
C2665      H2681   1.083       .  S
C2666      C2667   1.404       .  A
C2666      H2682   1.084       .  S
C2667      C2677   1.403       .  A
C2667      C2668   1.411       .  A
C2668      C2674   1.412       .  A
C2668      C2669   1.412       .  A
C2669      C2671   1.411       .  A
C2669      C2670   1.413       .  A
C2670      C2678   1.405       .  A
C2671      C2680   1.402       .  A
C2671      C2672   1.404       .  A
C2672      C2673   1.399       .  A
C2672      H2683   1.084       .  S
C2673      C2674   1.403       .  A
C2673      H2684   1.083       .  S
C2674      C2675   1.403       .  A
C2675      C2676   1.405       .  A
C2675      H2685   1.084       .  S
C2676      C2677   1.407       .  A
C2677      H2686   1.084       .  S
C2678      C2679   1.405       .  A
C2678      H2687   1.084       .  S
C2679      C2680   1.406       .  A
C2680      H2688   1.085       .  S
C2689      C2690   1.402       .  A
C2689      C2694   1.405   1_544  A
C2689      H2705   1.083   1_545  S
C2690      C2691   1.405   1_554  A
C2690      H2706   1.083       .  S
C2691      C2701   1.409       .  A
C2691      C2692   1.412       .  A
C2692      C2698   1.411       .  A
C2692      C2693   1.414       .  A
C2693      C2695   1.411   1_545  A
C2693      C2694   1.413   1_545  A
C2694      C2702   1.409       .  A
C2695      C2704   1.400       .  A
C2695      C2696   1.403   1_565  A
C2696      C2697   1.397       .  A
C2696      H2707   1.084       .  S
C2697      C2698   1.403       .  A
C2697      H2708   1.084       .  S
C2698      C2699   1.401       .  A
C2699      C2700   1.406       .  A
C2699      H2709   1.085       .  S
C2700      C2701   1.408       .  A
C2701      H2710   1.084       .  S
C2702      C2703   1.407       .  A
C2702      H2711   1.084       .  S
C2703      C2704   1.405       .  A
C2704      H2712   1.085       .  S
C2713      C2714   1.399       .  A
C2713      C2718   1.404       .  A
C2713      H2729   1.083       .  S
C2714      C2715   1.404   1_455  A
C2714      H2730   1.083   1_455  S
C2715      C2725   1.403       .  A
C2715      C2716   1.412   1_655  A
C2716      C2722   1.412   1_455  A
C2716      C2717   1.410       .  A
C2717      C2719   1.411       .  A
C2717      C2718   1.412       .  A
C2718      C2726   1.403       .  A
C2719      C2728   1.400       .  A
C2719      C2720   1.403       .  A
C2720      C2721   1.397       .  A
C2720      H2731   1.084   1_556  S
C2721      C2722   1.403   1_455  A
C2721      H2732   1.084   1_556  S
C2722      C2723   1.400       .  A
C2723      C2724   1.404       .  A
C2723      H2733   1.085       .  S
C2724      C2725   1.405       .  A
C2725      H2734   1.085       .  S
C2726      C2727   1.406       .  A
C2726      H2735   1.084       .  S
C2727      C2728   1.406       .  A
C2728      H2736   1.085       .  S
C2737      C2738   1.402       .  A
C2737      C2742   1.405       .  A
C2737      H2753   1.083       .  S
C2738      C2739   1.404       .  A
C2738      H2754   1.083       .  S
C2739      C2749   1.408       .  A
C2739      C2740   1.413       .  A
C2740      C2746   1.411       .  A
C2740      C2741   1.413       .  A
C2741      C2743   1.411       .  A
C2741      C2742   1.412       .  A
C2742      C2750   1.407       .  A
C2743      C2752   1.401       .  A
C2743      C2744   1.403   1_556  A
C2744      C2745   1.397       .  A
C2744      H2755   1.084       .  S
C2745      C2746   1.403   1_554  A
C2745      H2756   1.084       .  S
C2746      C2747   1.401       .  A
C2747      C2748   1.405       .  A
C2747      H2757   1.085   1_556  S
C2748      C2749   1.407       .  A
C2749      H2758   1.084       .  S
C2750      C2751   1.408       .  A
C2750      H2759   1.084       .  S
C2751      C2752   1.406       .  A
C2752      H2760   1.084       .  S
C2761      C2762   1.403       .  A
C2761      H2777   1.083   1_455  S
C2762      H2778   1.083       .  S
C2763      C2764   1.412   1_554  A
C2764      C2770   1.411       .  A
C2764      C2765   1.413       .  A
C2765      C2767   1.411   1_455  A
C2765      C2766   1.413   1_456  A
C2766      C2774   1.409       .  A
C2767      C2776   1.399       .  A
C2767      C2768   1.402   1_655  A
C2768      C2769   1.396       .  A
C2768      H2779   1.084   1_455  S
C2769      C2770   1.403       .  A
C2769      H2780   1.084       .  S
C2770      C2771   1.399       .  A
C2771      C2772   1.406       .  A
C2771      H2781   1.085       .  S
C2773      H2782   1.084       .  S
C2774      C2775   1.408   1_554  A
C2774      H2783   1.084       .  S
C2775      C2776   1.404       .  A
C2776      H2784   1.085       .  S
C2785      C2786   1.400       .  A
C2785      C2790   1.404       .  A
C2785      H2801   1.083       .  S
C2786      C2787   1.404       .  A
C2786      H2802   1.084       .  S
C2787      C2797   1.405       .  A
C2787      C2788   1.412       .  A
C2788      C2794   1.412       .  A
C2788      C2789   1.413       .  A
C2789      C2791   1.411       .  A
C2789      C2790   1.412       .  A
C2790      C2798   1.406       .  A
C2791      C2800   1.402       .  A
C2791      C2792   1.403       .  A
C2792      C2793   1.399       .  A
C2792      H2803   1.084       .  S
C2793      C2794   1.403       .  A
C2793      H2804   1.083       .  S
C2794      C2795   1.403       .  A
C2795      C2796   1.405       .  A
C2795      H2805   1.084       .  S
C2796      C2797   1.407       .  A
C2797      H2806   1.084       .  S
C2798      C2799   1.406       .  A
C2798      H2807   1.084       .  S
C2799      C2800   1.406       .  A
C2800      H2808   1.085       .  S
C2809      C2810   1.396       .  A
C2809      C2814   1.402       .  A
C2809      H2825   1.084       .  S
C2810      C2811   1.403       .  A
C2810      H2826   1.084       .  S
C2811      C2821   1.399       .  A
C2811      C2812   1.411       .  A
C2812      C2818   1.412       .  A
C2812      C2813   1.410       .  A
C2813      C2815   1.412   1_545  A
C2813      C2814   1.411       .  A
C2814      C2822   1.398   1_545  A
C2815      C2824   1.404       .  A
C2815      C2816   1.404   1_565  A
C2816      C2817   1.400       .  A
C2816      H2827   1.084   1_545  S
C2817      C2818   1.404       .  A
C2817      H2828   1.083       .  S
C2818      C2819   1.404       .  A
C2819      C2820   1.406       .  A
C2819      H2829   1.084       .  S
C2820      C2821   1.405       .  A
C2821      H2830   1.085       .  S
C2822      C2823   1.403       .  A
C2822      H2831   1.085       .  S
C2823      C2824   1.405       .  A
C2824      H2832   1.084       .  S
C2833      C2834   1.400       .  A
C2833      C2838   1.404       .  A
C2833      H2849   1.083       .  S
C2834      C2835   1.404       .  A
C2834      H2850   1.084       .  S
C2835      C2845   1.405       .  A
C2835      C2836   1.412       .  A
C2836      C2842   1.411       .  A
C2836      C2837   1.411       .  A
C2837      C2839   1.411       .  A
C2837      C2838   1.412       .  A
C2838      C2846   1.405       .  A
C2839      C2848   1.399       .  A
C2839      C2840   1.403       .  A
C2840      C2841   1.396       .  A
C2841      C2842   1.403       .  A
C2842      C2843   1.399       .  A
C2843      C2844   1.404       .  A
C2844      C2845   1.406       .  A
C2845      H2854   1.084       .  S
C2846      C2847   1.407       .  A
C2846      H2855   1.084       .  S
C2847      C2848   1.405       .  A
C2848      H2856   1.085       .  S
C2857      C2858   1.398       .  A
C2857      C2862   1.403       .  A
C2857      H2873   1.084       .  S
C2858      C2859   1.404       .  A
C2858      H2874   1.084       .  S
C2859      C2869   1.401       .  A
C2859      C2860   1.411       .  A
C2860      C2866   1.412       .  A
C2860      C2861   1.410       .  A
C2861      C2863   1.411       .  A
C2861      C2862   1.413       .  A
C2862      C2870   1.403       .  A
C2863      C2872   1.400       .  A
C2863      C2864   1.403       .  A
C2864      C2865   1.398       .  A
C2864      H2875   1.084       .  S
C2865      C2866   1.403       .  A
C2865      H2876   1.084       .  S
C2866      C2867   1.402       .  A
C2867      C2868   1.405       .  A
C2867      H2877   1.084       .  S
C2868      C2869   1.406       .  A
C2869      H2878   1.085       .  S
C2870      C2871   1.404       .  A
C2870      H2879   1.085       .  S
C2871      C2872   1.404       .  A
C2872      H2880   1.085       .  S
C2881      C2882   1.400       .  A
C2881      C2886   1.404       .  A
C2881      H2897   1.083       .  S
C2882      C2883   1.404       .  A
C2882      H2898   1.084       .  S
C2883      C2884   1.412       .  A
C2884      C2885   1.409       .  A
C2885      C2887   1.412       .  A
C2885      C2886   1.413       .  A
C2886      C2894   1.404       .  A
C2887      C2896   1.398       .  A
C2887      C2888   1.402       .  A
C2888      H2899   1.084       .  S
C2889      C2890   1.403       .  A
C2889      H2900   1.084       .  S
C2890      C2891   1.398       .  A
C2891      C2892   1.403       .  A
C2891      H2901   1.085       .  S
C2892      C2893   1.405   1_556  A
C2893      H2902   1.085       .  S
C2894      C2895   1.404       .  A
C2894      H2903   1.084       .  S
C2895      C2896   1.403       .  A
C2896      H2904   1.085       .  S
C2905      C2906   1.401       .  A
C2905      C2910   1.404       .  A
C2905      H2921   1.083       .  S
C2906      C2907   1.405       .  A
C2906      H2922   1.083       .  S
C2907      C2917   1.407       .  A
C2907      C2908   1.413       .  A
C2909      C2911   1.411       .  A
C2910      C2918   1.407       .  A
C2911      C2920   1.400       .  A
C2911      C2912   1.403       .  A
C2912      C2913   1.397       .  A
C2912      H2923   1.084       .  S
C2913      C2914   1.403       .  A
C2913      H2924   1.084       .  S
C2914      C2915   1.400       .  A
C2915      H2925   1.085       .  S
C2916      C2917   1.406       .  A
C2917      H2926   1.084       .  S
C2918      H2927   1.084       .  S
C2919      C2920   1.405       .  A
C2920      H2928   1.085       .  S
C2929      C2930   1.399       .  A
C2929      C2934   1.404       .  A
C2929      H2945   1.084       .  S
C2930      C2931   1.404       .  A
C2930      H2946   1.083       .  S
C2931      C2941   1.404       .  A
C2932      C2938   1.411       .  A
C2932      C2933   1.413       .  A
C2933      C2935   1.413       .  A
C2935      C2944   1.405       .  A
C2935      C2936   1.404       .  A
C2936      C2937   1.400       .  A
C2936      H2947   1.084       .  S
C2937      C2938   1.404       .  A
C2937      H2948   1.083       .  S
C2938      C2939   1.404       .  A
C2939      C2940   1.408       .  A
C2939      H2949   1.084       .  S
C2941      H2950   1.084       .  S
C2942      C2943   1.405   1_554  A
C2943      C2944   1.405       .  A
C2944      H2952   1.084       .  S
C2953      C2954   1.397       .  A
C2953      C2958   1.403       .  A
C2953      H2969   1.084       .  S
C2954      C2955   1.403       .  A
C2954      H2970   1.084       .  S
C2955      C2965   1.401       .  A
C2955      C2956   1.412       .  A
C2956      C2962   1.411       .  A
C2956      C2957   1.410       .  A
C2957      C2959   1.413       .  A
C2957      C2958   1.411       .  A
C2958      C2966   1.399       .  A
C2959      C2968   1.403       .  A
C2959      C2960   1.403   1_556  A
C2960      C2961   1.399       .  A
C2960      H2971   1.083       .  S
C2961      C2962   1.403   1_554  A
C2961      H2972   1.084       .  S
C2962      C2963   1.401       .  A
C2963      C2964   1.405       .  A
C2963      H2973   1.085       .  S
C2964      C2965   1.404       .  A
C2965      H2974   1.085       .  S
C2966      C2967   1.405       .  A
C2966      H2975   1.085       .  S
C2967      C2968   1.403       .  A
C2968      H2976   1.084   1_556  S
