geometry optimzed in LAMMPS
_audit_creation_date              2020-12-01 
_audit_creation_method            'lammps2cif' 
_symmetry_space_group_name_H-M    'P1' 
_symmetry_Int_Tables_number       1 
_symmetry_cell_setting            triclinic 
loop_ 
_symmetry_equiv_pos_as_xyz 
  x,y,z 
_cell_length_a                    26.4528911 
_cell_length_b                    25.6195052422088 
_cell_length_c                    26.146163221770017 
_cell_angle_alpha                 90.0140010844458 
_cell_angle_beta                  91.54892916493921 
_cell_angle_gamma                 89.84843160137166 
loop_ 
_atom_site_label 
_atom_site_type_symbol 
_atom_site_fract_x 
_atom_site_fract_y 
_atom_site_fract_z 
_atom_site_charge 
N1          N  0.05982063  0.90003579  0.05982724    -0.06800
N2          N  0.09802426  0.86709728  0.06515497    -0.58900
N3          N  0.94730729  0.93614625  0.10128733    -0.06500
N4          N  0.91551691  0.92498506  0.13750265    -0.61100
N5          N  0.94447088  0.90120033  0.06461735    -0.06100
N6          N  0.91008148  0.86590943  0.07425760    -0.58900
N7          N  0.06201787  0.93578229  0.09576522    -0.05800
N8          N  0.10178435  0.92843056  0.12614012    -0.61400
C9          C  0.12408643  0.88574995  0.10647564     0.95300
C10         C  0.89236301  0.88157255  0.11952571     0.95100
N11         N  0.94715732  0.09557135  0.06787150    -0.07000
N12         N  0.90929762  0.12803937  0.07489434    -0.59500
N13         N  0.06333644  0.05500043  0.09822931    -0.05100
N14         N  0.10164105  0.06074691  0.13067367    -0.60800
N15         N  0.06335035  0.09160468  0.06318066    -0.07000
N16         N  0.10191787  0.12338017  0.07098192    -0.59800
N17         N  0.94753854  0.05838767  0.10246895    -0.04800
N18         N  0.90997991  0.06487475  0.13407781    -0.60900
Mn19       Mn  0.00481675  0.99645859  0.10137439     1.18400
C20         C  0.88632283  0.10836172  0.11614270     0.97400
C21         C  0.12566423  0.10303749  0.11287400     0.98100
N22         N  0.93559449  0.90324564  0.94715992    -0.07100
N23         N  0.90058079  0.86764325  0.93927209    -0.63400
N24         N  0.04772000  0.93835053  0.90604823    -0.05900
N25         N  0.08334783  0.93098922  0.87251731    -0.64000
N26         N  0.05009623  0.90208059  0.94147297    -0.06600
N27         N  0.08704468  0.86909123  0.93303420    -0.63600
N28         N  0.93192349  0.94028167  0.91251055    -0.05500
N29         N  0.89387018  0.93076534  0.88022274    -0.64300
Mn30       Mn  0.99751676  0.89991826  0.00318464     1.10700
C31         C  0.87447138  0.88567633  0.89800138     0.98700
C32         C  0.10760066  0.88778692  0.89016193     0.98700
N33         N  0.05455311  0.09446250  0.94429283    -0.06600
N34         N  0.09092474  0.12766972  0.93453273    -0.62000
N35         N  0.93477063  0.06282754  0.91457825    -0.05900
N36         N  0.89622643  0.07395821  0.88347588    -0.58700
N37         N  0.94003384  0.09897910  0.94995453    -0.07200
N38         N  0.90566434  0.13577220  0.94361712    -0.61500
N39         N  0.05016210  0.05940696  0.90778324    -0.06200
N40         N  0.08362888  0.06783227  0.87233661    -0.58700
Mn41       Mn  0.00162533  0.09710241  0.00651810     1.20200
Mn42       Mn  0.99067875  0.00023407  0.90814862     1.10100
Cl43       Cl  0.99850924  0.99845015  0.00473118    -0.86700
C44         C  0.10889029  0.11034894  0.88972447     0.95700
C45         C  0.87830517  0.11920700  0.90254926     0.95500
C46         C  0.74889475  0.76072663  0.76088588    -0.03200
C47         C  0.75730255  0.76186455  0.24336420    -0.03200
N48         N  0.57526118  0.72086695  0.00403532    -0.37300
N49         N  0.49775040  0.71186115  0.08271794    -0.57900
N50         N  0.41890098  0.70025169  0.00321219    -0.37300
N51         N  0.49625932  0.71691343  0.92450286    -0.57900
C52         C  0.60293057  0.73350341  0.04669321     0.26300
C53         C  0.60229101  0.73465412  0.96267258     0.26300
C54         C  0.38990098  0.70668464  0.04495068     0.26300
C55         C  0.38908748  0.70922438  0.96103108     0.26300
C56         C  0.53964041  0.71211410  0.11359710     0.34900
C57         C  0.45812268  0.70237448  0.11308899     0.34900
C58         C  0.53716749  0.71456081  0.89440252     0.34900
C59         C  0.45542943  0.70555951  0.89420836     0.34900
C60         C  0.64851409  0.75493817  0.03222833    -0.22600
C61         C  0.64795385  0.75601750  0.97950653    -0.22600
C62         C  0.34068751  0.71792755  0.02884226    -0.22600
C63         C  0.34015958  0.71949952  0.97615594    -0.22600
C64         C  0.52642104  0.70300204  0.16380171    -0.23700
C65         C  0.47495917  0.69683185  0.16345044    -0.23700
C66         C  0.52202880  0.70133531  0.84487834    -0.23700
C67         C  0.47037619  0.69631508  0.84464671    -0.23700
C68         C  0.58912790  0.72480317  0.09832151    -0.19000
C69         C  0.58758144  0.72706467  0.91020590    -0.19000
C70         C  0.40440568  0.70826843  0.90918233    -0.19000
C71         C  0.40646008  0.70374211  0.09723468    -0.19000
H72         H  0.67913342  0.76858179  0.05702240     0.13900
H73         H  0.67791299  0.77102719  0.95632591     0.13900
H74         H  0.30849974  0.72512470  0.05257417     0.13900
H75         H  0.30739792  0.72785644  0.95179731     0.13900
H76         H  0.55107428  0.70217105  0.19750805     0.12200
H77         H  0.45235088  0.69018196  0.19671176     0.12200
H78         H  0.54555220  0.69617350  0.81204289     0.12200
H79         H  0.44648928  0.68702395  0.81165469     0.12200
H80         H  0.54089296  0.70170328  0.00336421     0.25400
H81         H  0.45671199  0.68977907  0.00322471     0.25400
C82         C  0.75020490  0.24145084  0.76614468    -0.03200
N83         N  0.69970046  0.00325758  0.57838078    -0.37300
N84         N  0.69221926  0.92158327  0.49936987    -0.57900
N85         N  0.70092345  0.00478993  0.42269903    -0.37300
N86         N  0.69908670  0.08595294  0.50150460    -0.57900
C87         C  0.69067364  0.96040420  0.60706724     0.26300
C88         C  0.69195692  0.04584971  0.60797789     0.26300
C89         C  0.68821707  0.96289641  0.39340894     0.26300
C90         C  0.69242434  0.04841273  0.39430148     0.26300
C91         C  0.70539736  0.89246856  0.54089758     0.34900
C92         C  0.70520845  0.89325533  0.45795865     0.34900
C93         C  0.70939262  0.11499995  0.54366975     0.34900
C94         C  0.71179826  0.11540492  0.46097625     0.34900
C95         C  0.67668114  0.97595601  0.65547888    -0.22600
C96         C  0.67739642  0.02976278  0.65602833    -0.22600
C97         C  0.67045281  0.98031711  0.34593697    -0.22600
C98         C  0.67371032  0.03409764  0.34628269    -0.22600
C99         C  0.72598201  0.84536560  0.52584689    -0.23700
C100        C  0.72637989  0.84604796  0.47350429    -0.23700
C101        C  0.72774702  0.16346480  0.52980161    -0.23700
C102        C  0.72906475  0.16381927  0.47741848    -0.23700
C103        C  0.69970831  0.90784682  0.59237773    -0.19000
C104        C  0.70228085  0.09847641  0.59453847    -0.19000
C105        C  0.70577484  0.10004031  0.40927645    -0.19000
C106        C  0.69829688  0.90966541  0.40643082    -0.19000
H107        H  0.66805926  0.95103564  0.68748924     0.13900
H108        H  0.66938613  0.05428186  0.68855851     0.13900
H109        H  0.65817343  0.95658090  0.31370323     0.13900
H110        H  0.66425967  0.05954178  0.31440272     0.13900
H111        H  0.74083169  0.81435343  0.55004080     0.12200
H112        H  0.74219843  0.81566321  0.45008776     0.12200
H113        H  0.73939312  0.19519441  0.55473525     0.12200
H114        H  0.74131119  0.19616631  0.45425771     0.12200
H115        H  0.71452721  0.00314946  0.54204096     0.25400
H116        H  0.71904627  0.00345905  0.45844172     0.25400
C117        C  0.75414304  0.23544394  0.23714660    -0.03200
N118        N  0.57336283  0.29584253  0.00306677    -0.37300
N119        N  0.49483028  0.29839967  0.08242176    -0.57900
N120        N  0.41593467  0.29679863  0.00380186    -0.37300
N121        N  0.49466264  0.28603143  0.92500334    -0.57900
C122        C  0.60095608  0.28473320  0.04613726     0.26300
C123        C  0.60085231  0.28025115  0.96258047     0.26300
C124        C  0.38900020  0.28664420  0.04634116     0.26300
C125        C  0.38892436  0.27869039  0.96263154     0.26300
C126        C  0.53710859  0.30919261  0.11078895     0.34900
C127        C  0.45482842  0.31177448  0.11111871     0.34900
C128        C  0.53480183  0.29248085  0.89444040     0.34900
C129        C  0.45268487  0.29216556  0.89487443     0.34900
C130        C  0.64681126  0.26279105  0.03278691    -0.22600
C131        C  0.64663642  0.25978654  0.98029321    -0.22600
C132        C  0.34436827  0.26173388  0.03160438    -0.22600
C133        C  0.34404187  0.25738304  0.97906107    -0.22600
C134        C  0.52407314  0.32954077  0.15769565    -0.23700
C135        C  0.47208635  0.33219628  0.15752991    -0.23700
C136        C  0.51816082  0.30298197  0.84481996    -0.23700
C137        C  0.46625893  0.30231500  0.84498171    -0.23700
C138        C  0.58684659  0.29542706  0.09713378    -0.19000
C139        C  0.58604652  0.28473450  0.91005012    -0.19000
C140        C  0.40262845  0.28295069  0.91047861    -0.19000
C141        C  0.40347777  0.30022282  0.09779301    -0.19000
H142        H  0.67743200  0.25011050  0.05816332     0.13900
H143        H  0.67673882  0.24370475  0.95787485     0.13900
H144        H  0.31508608  0.24734042  0.05594411     0.13900
H145        H  0.31417112  0.23995231  0.95575047     0.13900
H146        H  0.54942443  0.34093320  0.18888802     0.12200
H147        H  0.44963441  0.34639654  0.18862083     0.12200
H148        H  0.54096129  0.30955108  0.81170077     0.12200
H149        H  0.44143465  0.30779953  0.81184501     0.12200
H150        H  0.53865366  0.31474016  0.00160948     0.25400
H151        H  0.44978754  0.31709803  0.00240990     0.25400
C152        C  0.23740330  0.75975726  0.76522153    -0.03200
N153        N  0.98946545  0.58124864  0.71857441    -0.37300
N154        N  0.91278893  0.49923375  0.72024799    -0.57900
N155        N  0.99255452  0.41879032  0.71706109    -0.37300
N156        N  0.06874414  0.50117561  0.72236565    -0.57900
C157        C  0.94731171  0.60808397  0.73166791     0.26300
C158        C  0.03040479  0.60914611  0.73499465     0.26300
C159        C  0.95144889  0.39141757  0.73177224     0.26300
C160        C  0.03452794  0.39245657  0.73366135     0.26300
C161        C  0.88477357  0.54114325  0.70517086     0.34900
C162        C  0.88677922  0.45633141  0.70475150     0.34900
C163        C  0.09776267  0.54412490  0.71684770     0.34900
C164        C  0.09932792  0.45944196  0.71551742     0.34900
C165        C  0.96192425  0.65336138  0.75719599    -0.22600
C166        C  0.01412273  0.65434068  0.75864628    -0.22600
C167        C  0.96781617  0.34747650  0.75866048    -0.22600
C168        C  0.02000588  0.34770356  0.75906448    -0.22600
C169        C  0.84129386  0.52479050  0.67922087    -0.23700
C170        C  0.84271416  0.47112566  0.67866667    -0.23700
C171        C  0.14697738  0.52955760  0.70651613    -0.23700
C172        C  0.14795403  0.47596301  0.70563137    -0.23700
C173        C  0.89640462  0.59347365  0.71871642    -0.19000
C174        C  0.08193977  0.59575045  0.72739893    -0.19000
C175        C  0.08544386  0.40713502  0.72504430    -0.19000
C176        C  0.89998751  0.40457984  0.71926007    -0.19000
H177        H  0.93768673  0.68276165  0.77341117     0.13900
H178        H  0.03741132  0.68473266  0.77565547     0.13900
H179        H  0.94480380  0.31828968  0.77667844     0.13900
H180        H  0.04440652  0.31858692  0.77686371     0.13900
H181        H  0.81152596  0.54897016  0.66264334     0.12200
H182        H  0.81415414  0.44586600  0.66167424     0.12200
H183        H  0.17927124  0.55480638  0.70191423     0.12200
H184        H  0.18113675  0.45197536  0.70031903     0.12200
H185        H  0.99023239  0.54704751  0.69708351     0.25400
H186        H  0.99195316  0.45236039  0.69457146     0.25400
C187        C  0.23724711  0.23941616  0.76187856    -0.03200
N188        N  0.28412306  0.99602030  0.42225015    -0.37300
N189        N  0.28191418  0.91714645  0.50339327    -0.57900
N190        N  0.28505090  0.99952452  0.58136766    -0.37300
N191        N  0.28108387  0.07847957  0.50012938    -0.57900
C192        C  0.27097598  0.95260777  0.39508489     0.26300
C193        C  0.27162071  0.03838091  0.39318013     0.26300
C194        C  0.27444339  0.95736807  0.61063007     0.26300
C195        C  0.27443248  0.04295937  0.60890796     0.26300
C196        C  0.28691467  0.88508984  0.46265664     0.34900
C197        C  0.28759704  0.88702170  0.54569166     0.34900
C198        C  0.28853025  0.10823259  0.45822289     0.34900
C199        C  0.28820400  0.11002167  0.54128838     0.34900
C200        C  0.25052237  0.96765919  0.34795344    -0.22600
C201        C  0.25063077  0.02147910  0.34687487    -0.22600
C202        C  0.25817225  0.97437261  0.65784695    -0.22600
C203        C  0.25814300  0.02815296  0.65675003    -0.22600
C204        C  0.29570288  0.83439009  0.47919943    -0.23700
C205        C  0.29607240  0.83559916  0.53168452    -0.23700
C206        C  0.30092066  0.15874683  0.47310563    -0.23700
C207        C  0.29994085  0.16002082  0.52552774    -0.23700
C208        C  0.27810816  0.89975789  0.41095907    -0.19000
C209        C  0.27949941  0.09182826  0.40683672    -0.19000
C210        C  0.27998949  0.09561546  0.59264554    -0.19000
C211        C  0.27981561  0.90396361  0.59645271    -0.19000
H212        H  0.23644477  0.94253773  0.31752299     0.13900
H213        H  0.23630412  0.04537231  0.31556163     0.13900
H214        H  0.24723615  0.95055588  0.68987153     0.13900
H215        H  0.24718731  0.05343690  0.68774528     0.13900
H216        H  0.29986570  0.79979050  0.45592317     0.12200
H217        H  0.30067137  0.80211149  0.55661621     0.12200
H218        H  0.30892608  0.19172009  0.44880997     0.12200
H219        H  0.30671453  0.19401022  0.54931035     0.12200
H220        H  0.30262108  0.99670519  0.45776724     0.25400
H221        H  0.30011949  0.99871893  0.54520326     0.25400
C222        C  0.24375914  0.24396049  0.23961664    -0.03200
C223        C  0.24531768  0.75468628  0.23945954    -0.03200
N224        N  0.99640845  0.57830581  0.28476778    -0.37300
N225        N  0.07574043  0.49855996  0.28766403    -0.57900
N226        N  0.99580276  0.41803552  0.28579328    -0.37300
N227        N  0.91696228  0.49751997  0.29292934    -0.57900
C228        C  0.03847864  0.60814731  0.29213171     0.26300
C229        C  0.95536210  0.60790052  0.29572734     0.26300
C230        C  0.03799468  0.38921773  0.29602547     0.26300
C231        C  0.95514925  0.38883764  0.29810828     0.26300
C232        C  0.10268058  0.54037186  0.27226571     0.34900
C233        C  0.10211308  0.45575394  0.27364681     0.34900
C234        C  0.88829468  0.54014208  0.28171554     0.34900
C235        C  0.88803987  0.45523012  0.28127714     0.34900
C236        C  0.02373778  0.65726975  0.30855928    -0.22600
C237        C  0.97155602  0.65728502  0.31023288    -0.22600
C238        C  0.02403695  0.34120693  0.31553912    -0.22600
C239        C  0.97188735  0.34104297  0.31707704    -0.22600
C240        C  0.14608800  0.52386731  0.24839671    -0.23700
C241        C  0.14580011  0.47042605  0.24941693    -0.23700
C242        C  0.84073584  0.52468530  0.26399221    -0.23700
C243        C  0.84089805  0.47122629  0.26283147    -0.23700
C244        C  0.08917835  0.59326316  0.28052324    -0.19000
C245        C  0.90375225  0.59288033  0.28834490    -0.19000
C246        C  0.90350949  0.40246684  0.28795173    -0.19000
C247        C  0.08819270  0.40355000  0.28374840    -0.19000
H248        H  0.04794780  0.69018813  0.31749921     0.13900
H249        H  0.94822322  0.69026516  0.32032548     0.13900
H250        H  0.04883549  0.30924132  0.32659302     0.13900
H251        H  0.94881966  0.30890661  0.32964171     0.13900
H252        H  0.17463038  0.54765432  0.23098230     0.12200
H253        H  0.17416118  0.44531448  0.23320148     0.12200
H254        H  0.80911680  0.54913975  0.25227817     0.12200
H255        H  0.80977530  0.44729222  0.24914698     0.12200
H256        H  0.99535463  0.54104067  0.26937040     0.25400
H257        H  0.99472434  0.45386964  0.26730670     0.25400
C258        C  0.15393460  0.71526896  0.23093383    -0.14100
C259        C  0.20489682  0.71102314  0.24948089     0.08100
C260        C  0.21585393  0.66844530  0.28230815    -0.14100
C261        C  0.17845913  0.63121141  0.29387870    -0.14100
C262        C  0.12886389  0.63479291  0.27247043     0.08100
C263        C  0.11767964  0.67734041  0.24068746    -0.14100
H264        H  0.14025376  0.74856953  0.20948390     0.12100
H265        H  0.25342107  0.66425399  0.29931083     0.12100
H266        H  0.18846275  0.59914162  0.31917924     0.12100
H267        H  0.08025823  0.68167627  0.22334371     0.12100
C268        C  0.17445134  0.36203733  0.30109043    -0.14100
C269        C  0.12684964  0.36166940  0.27551791     0.08100
C270        C  0.11826843  0.32503870  0.23674594    -0.14100
C271        C  0.15559510  0.28901133  0.22427328    -0.14100
C272        C  0.20294704  0.28664711  0.25138056     0.08100
C273        C  0.21229817  0.32580729  0.28841485    -0.14100
H274        H  0.18260745  0.39109994  0.33021075     0.12100
H275        H  0.08295732  0.32542362  0.21474482     0.12100
H276        H  0.14678378  0.26377395  0.19218993     0.12100
H277        H  0.24851473  0.32724721  0.30865733     0.12100
C278        C  0.21543513  0.80191493  0.32008124    -0.14100
C279        C  0.25655888  0.78254466  0.29193230     0.08100
C280        C  0.30571345  0.79588740  0.31036410    -0.14100
C281        C  0.31278186  0.83370965  0.34895027    -0.14100
C282        C  0.27116906  0.85702443  0.37220035     0.08100
C283        C  0.22265151  0.83870460  0.35928178    -0.14100
H284        H  0.17699419  0.79196139  0.30883472     0.12100
H285        H  0.33911351  0.77927037  0.29399654     0.12100
H286        H  0.35079974  0.84548306  0.36009305     0.12100
H287        H  0.19005016  0.85466954  0.37805264     0.12100
C288        C  0.30159164  0.13094525  0.32115810    -0.14100
C289        C  0.27402265  0.13331425  0.36615921     0.08100
C290        C  0.24033356  0.17522531  0.37209015    -0.14100
C291        C  0.23462521  0.21400582  0.33457306    -0.14100
C292        C  0.26098315  0.21155147  0.28811646     0.08100
C293        C  0.29423602  0.16838896  0.28248556    -0.14100
H294        H  0.32747601  0.09886278  0.31504298     0.12100
H295        H  0.21730785  0.17739023  0.40566339     0.12100
H296        H  0.20575381  0.24285606  0.34091546     0.12100
H297        H  0.31262187  0.16184535  0.24654649     0.12100
C298        C  0.21255933  0.19273887  0.67656862    -0.14100
C299        C  0.25130791  0.21023317  0.71106800     0.08100
C300        C  0.30146148  0.19516830  0.69965537    -0.14100
C301        C  0.31111317  0.15891147  0.66068197    -0.14100
C302        C  0.27136812  0.13827855  0.63052180     0.08100
C303        C  0.22239162  0.15722837  0.63737804    -0.14100
H304        H  0.17347642  0.20292564  0.68294715     0.12100
H305        H  0.33364013  0.20918657  0.72183958     0.12100
H306        H  0.34953777  0.14596044  0.65487530     0.12100
H307        H  0.19122214  0.14249698  0.61390431     0.12100
C308        C  0.14961771  0.34286998  0.69183259    -0.14100
C309        C  0.12686006  0.36773556  0.73310668     0.08100
C310        C  0.14638793  0.35798215  0.78231282    -0.14100
C311        C  0.18425522  0.32042534  0.79063864    -0.14100
C312        C  0.20348674  0.28958179  0.75033300     0.08100
C313        C  0.18828739  0.30568877  0.70017764    -0.14100
H314        H  0.13754555  0.35237588  0.65302832     0.12100
H315        H  0.13208326  0.37946459  0.81457791     0.12100
H316        H  0.19867790  0.31713628  0.82917621     0.12100
H317        H  0.20545186  0.28977177  0.66663596     0.12100
C318        C  0.30078482  0.80149303  0.70095516    -0.14100
C319        C  0.25061456  0.78951564  0.71466878     0.08100
C320        C  0.21115468  0.81126489  0.68341061    -0.14100
C321        C  0.22094266  0.84760597  0.64509396    -0.14100
C322        C  0.27050498  0.86294200  0.63567654     0.08100
C323        C  0.31045890  0.83835548  0.66262039    -0.14100
H324        H  0.33305740  0.78430529  0.72078305     0.12100
H325        H  0.17201188  0.80354750  0.69182575     0.12100
H326        H  0.18956872  0.86526453  0.62391670     0.12100
H327        H  0.34917876  0.84835060  0.65451473     0.12100
C328        C  0.18299936  0.69852273  0.70332409    -0.14100
C329        C  0.20100884  0.71172327  0.75342313     0.08100
C330        C  0.18231652  0.67999182  0.79329280    -0.14100
C331        C  0.14332473  0.64380158  0.78496726    -0.14100
C332        C  0.12214623  0.63613014  0.73605772     0.08100
C333        C  0.14344861  0.66258583  0.69503210    -0.14100
H334        H  0.19894668  0.71540872  0.66965814     0.12100
H335        H  0.19853887  0.68090453  0.83126963     0.12100
H336        H  0.13006489  0.62109019  0.81685410     0.12100
H337        H  0.12995450  0.65478587  0.65631500     0.12100
C338        C  0.31511845  0.31531239  0.13278271    -0.14100
C339        C  0.36487252  0.29633390  0.13976589     0.08100
C340        C  0.37668500  0.27075998  0.18632591    -0.14100
C341        C  0.33956412  0.26099081  0.22249324    -0.14100
C342        C  0.28799024  0.27122468  0.21119951     0.08100
C343        C  0.27727138  0.30253478  0.16748037    -0.14100
H344        H  0.30465144  0.33714179  0.09863591     0.12100
H345        H  0.41449999  0.25615789  0.19424332     0.12100
H346        H  0.35174753  0.24240063  0.25769254     0.12100
H347        H  0.23865951  0.31346051  0.15770196     0.12100
C348        C  0.30194964  0.30410742  0.80526845    -0.14100
C349        C  0.28591952  0.25256950  0.79446726     0.08100
C350        C  0.31286325  0.21146892  0.81938114    -0.14100
C351        C  0.35070593  0.22145042  0.85640016    -0.14100
C352        C  0.36332230  0.27278820  0.86964374     0.08100
C353        C  0.33964675  0.31401339  0.84288864    -0.14100
H354        H  0.28472279  0.33713389  0.78582561     0.12100
H355        H  0.30289664  0.17120428  0.81162983     0.12100
H356        H  0.36941285  0.18902518  0.87567310     0.12100
H357        H  0.35010598  0.35395924  0.85150399     0.12100
C358        C  0.78151940  0.31983828  0.28578048    -0.14100
C359        C  0.79339310  0.27960429  0.25100753     0.08100
C360        C  0.84366967  0.27907155  0.23314519    -0.14100
C361        C  0.87795070  0.31876528  0.24491727    -0.14100
C362        C  0.86566352  0.35922741  0.27828335     0.08100
C363        C  0.81725985  0.35852326  0.29977883    -0.14100
H364        H  0.74445284  0.32110782  0.30232628     0.12100
H365        H  0.85835786  0.24789711  0.21025926     0.12100
H366        H  0.91476508  0.31754677  0.22777417     0.12100
H367        H  0.80674045  0.38848936  0.32671671     0.12100
C368        C  0.69927892  0.30781844  0.19075511    -0.14100
C369        C  0.70653243  0.25536155  0.20644021     0.08100
C370        C  0.67127985  0.21808618  0.18747187    -0.14100
C371        C  0.63085813  0.23220950  0.15503274    -0.14100
C372        C  0.62480213  0.28387435  0.13881424     0.08100
C373        C  0.65894297  0.32176352  0.15721491    -0.14100
H374        H  0.72569138  0.33799156  0.20207503     0.12100
H375        H  0.67594205  0.17717747  0.19699909     0.12100
H376        H  0.60558975  0.20218088  0.14039266     0.12100
H377        H  0.65543522  0.36174139  0.14413298     0.12100
C378        C  0.67782187  0.16484476  0.34175758    -0.14100
C379        C  0.71681007  0.13934653  0.36909222     0.08100
C380        C  0.76701477  0.15322211  0.35999948    -0.14100
C381        C  0.77820267  0.18843794  0.32106185    -0.14100
C382        C  0.73957510  0.20872445  0.28827883     0.08100
C383        C  0.68895812  0.19996510  0.30258288    -0.14100
H384        H  0.63873294  0.15688132  0.35020959     0.12100
H385        H  0.79768791  0.13567821  0.38230393     0.12100
H386        H  0.81753692  0.19605097  0.31344974     0.12100
H387        H  0.65732184  0.21852289  0.28301623     0.12100
C388        C  0.83025364  0.27369081  0.72186995    -0.14100
C389        C  0.78362412  0.28635360  0.74449862     0.08100
C390        C  0.77294553  0.33993007  0.75041269    -0.14100
C391        C  0.81057489  0.37772360  0.74334641    -0.14100
C392        C  0.85837251  0.36430416  0.72426030     0.08100
C393        C  0.86608860  0.31191149  0.71072030    -0.14100
H394        H  0.84073194  0.23363976  0.71511185     0.12100
H395        H  0.73657211  0.35315352  0.76298943     0.12100
H396        H  0.80225614  0.41757756  0.75395959     0.12100
H397        H  0.90101230  0.29986171  0.69351277     0.12100
C398        C  0.70901478  0.29583679  0.83729008    -0.14100
C399        C  0.70315166  0.25892204  0.79710347     0.08100
C400        C  0.65770993  0.22963048  0.79641504    -0.14100
C401        C  0.61965902  0.23883481  0.83185910    -0.14100
C402        C  0.62539234  0.27727463  0.86992103     0.08100
C403        C  0.67044902  0.30603058  0.87170050    -0.14100
H404        H  0.74460400  0.31575496  0.84371037     0.12100
H405        H  0.65230677  0.19693877  0.77081241     0.12100
H406        H  0.58628408  0.21442328  0.83070028     0.12100
H407        H  0.67676027  0.33501286  0.90133889     0.12100
C408        C  0.76890878  0.16246076  0.70720349    -0.14100
C409        C  0.73717504  0.20517877  0.71946991     0.08100
C410        C  0.69586138  0.21542644  0.68549238    -0.14100
C411        C  0.68335931  0.18063811  0.64536501    -0.14100
C412        C  0.71341314  0.13626254  0.63678020     0.08100
C413        C  0.75690888  0.12854163  0.66719095    -0.14100
H414        H  0.80350939  0.15445860  0.72874314     0.12100
H415        H  0.67230414  0.24946402  0.69102827     0.12100
H416        H  0.65040028  0.18829690  0.62103856     0.12100
H417        H  0.78186600  0.09594119  0.65981769     0.12100
C418        C  0.33524704  0.67364293  0.15407120    -0.14100
C419        C  0.36860230  0.71265256  0.13807878     0.08100
C420        C  0.36598261  0.76194598  0.16077891    -0.14100
C421        C  0.32934190  0.77312990  0.19660346    -0.14100
C422        C  0.29377703  0.73529499  0.21204036     0.08100
C423        C  0.29842291  0.68465675  0.19072570    -0.14100
H424        H  0.33675434  0.63513233  0.13710399     0.12100
H425        H  0.39123938  0.79268726  0.14909659     0.12100
H426        H  0.32641990  0.81310554  0.20966443     0.12100
H427        H  0.27170150  0.65430045  0.19926947     0.12100
C428        C  0.33936757  0.67921130  0.84200899    -0.14100
C429        C  0.36543011  0.71921809  0.86816852     0.08100
C430        C  0.35439802  0.77111928  0.85559525    -0.14100
C431        C  0.31589919  0.78313664  0.81997864    -0.14100
C432        C  0.28640328  0.74360938  0.79592742     0.08100
C433        C  0.30073573  0.69121112  0.80575966    -0.14100
H434        H  0.34839000  0.63877820  0.85024293     0.12100
H435        H  0.37478237  0.80255414  0.87459138     0.12100
H436        H  0.30743530  0.82390766  0.81282029     0.12100
H437        H  0.28147760  0.65922345  0.78670321     0.12100
C438        C  0.70897881  0.78407755  0.32593067    -0.14100
C439        C  0.74276080  0.79963977  0.28793210     0.08100
C440        C  0.75648113  0.85330787  0.28778539    -0.14100
C441        C  0.74250785  0.88743557  0.32610783    -0.14100
C442        C  0.70989501  0.87177982  0.36420784     0.08100
C443        C  0.69193441  0.81987087  0.36282733    -0.14100
H444        H  0.69495681  0.74442090  0.32631287     0.12100
H445        H  0.77708195  0.87110714  0.25744391     0.12100
H446        H  0.75717940  0.92686030  0.32544780     0.12100
H447        H  0.66560552  0.80668255  0.39102924     0.12100
C448        C  0.84288176  0.66272990  0.32016980    -0.14100
C449        C  0.86439898  0.63458153  0.27984746     0.08100
C450        C  0.84661539  0.64424275  0.22992785    -0.14100
C451        C  0.80880264  0.68115424  0.22012145    -0.14100
C452        C  0.78840939  0.71222241  0.25954279     0.08100
C453        C  0.80582195  0.70161149  0.31016928    -0.14100
H454        H  0.85560759  0.65543795  0.35922714     0.12100
H455        H  0.86214339  0.62286569  0.19819549     0.12100
H456        H  0.79747398  0.68787791  0.18055888     0.12100
H457        H  0.79265713  0.72439944  0.34194260     0.12100
C458        C  0.69265873  0.69810471  0.19883064    -0.14100
C459        C  0.70722047  0.74913976  0.21346465     0.08100
C460        C  0.67687320  0.79105773  0.19486689    -0.14100
C461        C  0.63831180  0.78298955  0.15819361    -0.14100
C462        C  0.62826483  0.73277884  0.13963367     0.08100
C463        C  0.65432939  0.69021336  0.16152046    -0.14100
H464        H  0.71183093  0.66407487  0.21418056     0.12100
H465        H  0.68565917  0.83084776  0.20573440     0.12100
H466        H  0.61745173  0.81617986  0.14290169     0.12100
H467        H  0.64548931  0.65088946  0.14905792     0.12100
C468        C  0.65637127  0.77443309  0.79140449    -0.14100
C469        C  0.70220827  0.74553768  0.79339559     0.08100
C470        C  0.70928391  0.71174516  0.83602442    -0.14100
C471        C  0.67189713  0.70459907  0.87232478    -0.14100
C472        C  0.62672895  0.73328854  0.86969634     0.08100
C473        C  0.61959590  0.76848956  0.82883511    -0.14100
H474        H  0.64976421  0.80467059  0.76328749     0.12100
H475        H  0.74516021  0.69225885  0.84283882     0.12100
H476        H  0.67907183  0.67777720  0.90371281     0.12100
H477        H  0.58582095  0.79246008  0.82652951     0.12100
C478        C  0.69535372  0.78747278  0.67955507    -0.14100
C479        C  0.73621879  0.79725448  0.71411312     0.08100
C480        C  0.76744635  0.84063624  0.70301860    -0.14100
C481        C  0.75477956  0.87599204  0.66435278    -0.14100
C482        C  0.71144946  0.86881718  0.63359388     0.08100
C483        C  0.68245315  0.82343222  0.64041185    -0.14100
H484        H  0.67224711  0.75307006  0.68414035     0.12100
H485        H  0.80222918  0.84801429  0.72443739     0.12100
H486        H  0.77922749  0.90914606  0.65816345     0.12100
H487        H  0.64981449  0.81602517  0.61562073     0.12100
C488        C  0.76996566  0.66055775  0.74961820    -0.14100
C489        C  0.78039729  0.71367485  0.73974556     0.08100
C490        C  0.82557399  0.72406176  0.71364111    -0.14100
C491        C  0.86103194  0.68478248  0.70383573    -0.14100
C492        C  0.85411005  0.63356373  0.72136650     0.08100
C493        C  0.80705077  0.62169533  0.74278013    -0.14100
H494        H  0.73438565  0.64866029  0.76506726     0.12100
H495        H  0.83544680  0.76348988  0.70345969     0.12100
H496        H  0.89540044  0.69526428  0.68479612     0.12100
H497        H  0.79925510  0.58247390  0.75571044     0.12100
C498        C  0.79444932  0.87261906  0.84840858    -0.14100
C499        C  0.84005376  0.85288148  0.86816679     0.08100
C500        C  0.85457107  0.80161671  0.85737970    -0.14100
C501        C  0.82553736  0.77125111  0.82390269    -0.14100
C502        C  0.78097951  0.79163873  0.80064904     0.08100
C503        C  0.76413180  0.84146308  0.81666887    -0.14100
H504        H  0.78247748  0.91196707  0.85738303     0.12100
H505        H  0.88952989  0.78567165  0.87337806     0.12100
H506        H  0.83844030  0.73196233  0.81659827     0.12100
H507        H  0.72877936  0.85753646  0.80187175     0.12100
C508        C  0.79839759  0.12949590  0.85235904    -0.14100
C509        C  0.84137467  0.15173153  0.87541317     0.08100
C510        C  0.85152683  0.20475373  0.86871250    -0.14100
C511        C  0.82190786  0.23414885  0.83475297    -0.14100
C512        C  0.78119689  0.21099327  0.80710787     0.08100
C513        C  0.76706685  0.15969367  0.82057070    -0.14100
H514        H  0.78954244  0.08873222  0.85839827     0.12100
H515        H  0.88410699  0.22273571  0.88744420     0.12100
H516        H  0.83173865  0.27473159  0.82969060     0.12100
H517        H  0.73372511  0.14171598  0.80340371     0.12100
C518        C  0.16575262  0.88091385  0.81783518    -0.14100
C519        C  0.14732869  0.86061250  0.86307621     0.08100
C520        C  0.16594615  0.81294866  0.88144010    -0.14100
C521        C  0.19764344  0.78308999  0.85162656    -0.14100
C522        C  0.20911813  0.79827288  0.80125094     0.08100
C523        C  0.19771440  0.85098761  0.78828301    -0.14100
H524        H  0.15494276  0.91961970  0.80484085     0.12100
H525        H  0.15548458  0.79824808  0.91851912     0.12100
H526        H  0.21431152  0.74907402  0.86933700     0.12100
H527        H  0.21310662  0.87061543  0.75587522     0.12100
C528        C  0.87188396  0.83926444  0.20030931    -0.14100
C529        C  0.85908757  0.84991572  0.14929348     0.08100
C530        C  0.81664427  0.82710709  0.12591901    -0.14100
C531        C  0.78427734  0.79731658  0.15477227    -0.14100
C532        C  0.79395676  0.79017037  0.20780436     0.08100
C533        C  0.84073317  0.80777366  0.22871476    -0.14100
H534        H  0.90617490  0.85484718  0.21795144     0.12100
H535        H  0.80810616  0.83313281  0.08557566     0.12100
H536        H  0.75222212  0.78003394  0.13483771     0.15300
H537        H  0.85110663  0.80025132  0.26840431     0.12100
C538        C  0.18601355  0.87876750  0.17859138    -0.14100
C539        C  0.16541977  0.85800344  0.13312114     0.08100
C540        C  0.17982769  0.80805939  0.11752095    -0.14100
C541        C  0.20891984  0.77678259  0.15045352    -0.14100
C542        C  0.22274183  0.79434994  0.20027910     0.08100
C543        C  0.21517092  0.84768384  0.21142985    -0.14100
H544        H  0.17730441  0.91827948  0.19027236     0.12100
H545        H  0.16567099  0.79179641  0.08169468     0.12100
H546        H  0.21656854  0.73698872  0.13898013     0.12100
H547        H  0.22967469  0.86570211  0.24608787     0.12100
C548        C  0.82490550  0.18169009  0.12211321    -0.14100
C549        C  0.84395343  0.13425384  0.14116763     0.08100
C550        C  0.82463406  0.11387780  0.18622191    -0.14100
C551        C  0.79118458  0.14325773  0.21489534    -0.14100
C552        C  0.77888155  0.19520235  0.20072781     0.08100
C553        C  0.79218533  0.21149960  0.15118083    -0.14100
H554        H  0.83773116  0.19741457  0.08629017     0.12100
H555        H  0.83680068  0.07601810  0.20037757     0.12100
H556        H  0.77719514  0.12513978  0.24886096     0.12100
H557        H  0.78130815  0.24980013  0.13717893     0.12100
C558        C  0.15885842  0.12127092  0.81156065    -0.14100
C559        C  0.14568640  0.13899448  0.85985523     0.08100
C560        C  0.16655694  0.18533802  0.87864938    -0.14100
C561        C  0.19697429  0.21555149  0.84790761    -0.14100
C562        C  0.20591647  0.20194606  0.79633699     0.08100
C563        C  0.18956898  0.15139454  0.78091609    -0.14100
H564        H  0.14528768  0.08403440  0.79722072     0.12100
H565        H  0.15939405  0.19841957  0.91719109     0.12100
H566        H  0.21557215  0.24815650  0.86620374     0.12100
H567        H  0.20051420  0.13296706  0.74605252     0.12100
C568        C  0.23200029  0.19134150  0.15409595    -0.14100
C569        C  0.21866682  0.20179257  0.20519310     0.08100
C570        C  0.17877090  0.17260372  0.22587809    -0.14100
C571        C  0.15112106  0.13791118  0.19615468    -0.14100
C572        C  0.16143695  0.13221028  0.14448667     0.08100
C573        C  0.20229126  0.15820736  0.12349434    -0.14100
H574        H  0.26404259  0.20928681  0.13663482     0.12100
H575        H  0.16702521  0.17877775  0.26472077     0.12100
H576        H  0.11935410  0.11817381  0.21286170     0.12100
H577        H  0.21088121  0.15315803  0.08351522     0.12100
loop_ 
_geom_bond_atom_site_label_1 
_geom_bond_atom_site_label_2 
_geom_bond_distance 
_geom_bond_site_symmetry_2 
_ccdc_geom_bond_type 
N1            N2   1.319       .  A
N1            N7   1.312       .  A
N1          Mn30   2.186   1_455  S
N2            C9   1.354       .  A
N3            N5   1.312       .  A
N3            N4   1.315       .  A
N3          Mn19   2.171   1_655  S
N4           C10   1.349       .  A
N5            N6   1.314       .  A
N5          Mn30   2.161       .  S
N6           C10   1.345       .  A
N7            N8   1.314       .  A
N7          Mn19   2.174       .  S
N8            C9   1.349       .  A
C9          C539   1.463       .  S
C10         C529   1.442       .  S
N11          N17   1.314       .  A
N11          N12   1.317       .  A
N11         Mn41   2.185   1_655  S
N12          C20   1.351       .  A
N13          N14   1.312       .  A
N13          N15   1.311       .  A
N13         Mn19   2.161   1_545  S
N14          C21   1.347       .  A
N15          N16   1.318       .  A
N15         Mn41   2.179       .  S
N16          C21   1.352       .  A
N17          N18   1.320       .  A
N17         Mn19   2.192   1_645  S
N18          C20   1.354       .  A
Mn19        Cl43   2.528   1_455  S
C20         C549   1.470       .  S
C21         C572   1.449       .  S
N22          N23   1.314       .  A
N22          N28   1.314       .  A
N22         Mn30   2.169   1_556  S
N23          C31   1.347       .  A
N24          N26   1.312       .  A
N24          N25   1.318       .  A
N24         Mn42   2.188   1_465  S
N25          C32   1.353       .  A
N26          N27   1.314       .  A
N26         Mn30   2.159   1_456  S
N27          C32   1.348       .  A
N28          N29   1.319       .  A
N28         Mn42   2.193   1_565  S
N29          C31   1.353       .  A
Mn30        Cl43   2.525       .  S
C31         C499   1.452       .  S
C32         C519   1.458       .  S
N33          N34   1.316       .  A
N33          N39   1.314       .  A
N33         Mn41   2.176   1_556  S
N34          C44   1.351       .  A
N35          N36   1.318       .  A
N35          N37   1.314       .  A
N35         Mn42   2.188       .  S
N36          C45   1.352       .  A
N37          N38   1.315       .  A
N37         Mn41   2.171   1_656  S
N38          C45   1.348       .  A
N39          N40   1.317       .  A
N39         Mn42   2.188   1_455  S
N40          C44   1.352       .  A
Mn41        Cl43   2.529   1_445  S
Mn42        Cl43   2.529   1_546  S
C44         C559   1.463       .  S
C45         C509   1.453       .  S
C46         C469   1.568       .  S
C46         C479   1.569       .  S
C46         C489   1.572       .  S
C46         C502   1.544       .  S
C47         C439   1.570       .  S
C47         C452   1.565       .  S
C47         C459   1.555       .  S
C47         C532   1.544       .  S
N48          C53   1.360   1_554  A
N48          C52   1.357       .  A
N48          H80   1.034       .  S
N49          C56   1.353       .  A
N49          C57   1.355       .  A
N50          C55   1.358   1_554  A
N50          C54   1.361       .  A
N50          H81   1.035       .  S
N51          C58   1.356       .  A
N51          C59   1.354       .  A
C52          C60   1.388       .  A
C52          C68   1.426       .  A
C53          C69   1.429       .  A
C53          C61   1.388       .  A
C54          C62   1.387       .  A
C54          C71   1.426       .  A
C55          C70   1.426       .  A
C55          C63   1.388       .  A
C56          C68   1.418       .  A
C56          C64   1.388       .  A
C57          C71   1.418       .  A
C57          C65   1.386       .  A
C58          C66   1.387       .  A
C58          C69   1.423       .  A
C59          C67   1.385       .  A
C59          C70   1.417       .  A
C60          C61   1.378   1_554  A
C60          H72   1.082       .  S
C61          H73   1.082       .  S
C62          C63   1.378   1_554  A
C62          H74   1.082       .  S
C63          H75   1.082       .  S
C64          C65   1.371       .  A
C64          H76   1.082       .  S
C65          H77   1.082       .  S
C66          C67   1.373       .  A
C66          H78   1.082       .  S
C67          H79   1.082       .  S
C68         C462   1.490       .  S
C69         C472   1.510       .  S
C70         C429   1.493       .  S
C71         C419   1.501       .  S
C82         C389   1.568       .  S
C82         C399   1.567       .  S
C82         C409   1.565       .  S
C82         C512   1.542       .  S
N83          C88   1.356       .  A
N83          C87   1.355   1_545  A
N83         H115   1.038       .  S
N84          C91   1.355       .  A
N84          C92   1.355       .  A
N85          C90   1.357       .  A
N85          C89   1.356   1_545  A
N85         H116   1.039       .  S
N86          C93   1.352       .  A
N86          C94   1.351       .  A
C87          C95   1.386       .  A
C87         C103   1.422       .  A
C88         C104   1.422       .  A
C88          C96   1.387       .  A
C89          C97   1.389       .  A
C89         C106   1.428       .  A
C90         C105   1.422       .  A
C90          C98   1.387       .  A
C91         C103   1.414       .  A
C91          C99   1.384       .  A
C92         C106   1.418       .  A
C92         C100   1.388       .  A
C93         C101   1.386       .  A
C93         C104   1.413       .  A
C94         C102   1.387       .  A
C94         C105   1.413       .  A
C95          C96   1.379   1_565  A
C95         H107   1.082       .  S
C96         H108   1.082       .  S
C97          C98   1.381   1_565  A
C97         H109   1.082       .  S
C98         H110   1.082       .  S
C99         C100   1.369       .  A
C99         H111   1.082       .  S
C100        H112   1.081       .  S
C101        C102   1.371       .  A
C101        H113   1.082       .  S
C102        H114   1.082       .  S
C103        C482   1.496       .  S
C104        C412   1.492       .  S
C105        C379   1.491       .  S
C106        C442   1.507       .  S
C117        C359   1.573       .  S
C117        C369   1.560       .  S
C117        C382   1.560       .  S
C117        C552   1.558       .  S
N118        C123   1.360   1_554  A
N118        C122   1.355       .  A
N118        H150   1.037       .  S
N119        C126   1.354       .  A
N119        C127   1.357       .  A
N120        C125   1.358   1_554  A
N120        C124   1.362       .  A
N120        H151   1.038       .  S
N121        C128   1.357       .  A
N121        C129   1.353       .  A
C122        C130   1.389       .  A
C122        C138   1.421       .  A
C123        C139   1.423       .  A
C123        C131   1.387       .  A
C124        C132   1.389       .  A
C124        C141   1.432       .  A
C125        C140   1.425       .  A
C125        C133   1.387       .  A
C126        C138   1.416       .  A
C126        C134   1.384       .  A
C127        C141   1.425       .  A
C127        C135   1.388       .  A
C128        C136   1.385       .  A
C128        C139   1.419       .  A
C129        C137   1.387       .  A
C129        C140   1.416       .  A
C130        C131   1.375   1_554  A
C130        H142   1.082       .  S
C131        H143   1.082       .  S
C132        C133   1.378   1_554  A
C132        H144   1.081       .  S
C133        H145   1.082       .  S
C134        C135   1.377       .  A
C134        H146   1.082       .  S
C135        H147   1.082       .  S
C136        C137   1.373       .  A
C136        H148   1.082       .  S
C137        H149   1.082       .  S
C138        C372   1.491       .  S
C139        C402   1.509       .  S
C140        C352   1.493       .  S
C141        C339   1.523       .  S
C152        C319   1.574       .  S
C152        C329   1.589       .  S
C152        C432   1.561       .  S
C152        C522   1.567       .  S
N153        C158   1.359   1_655  A
N153        C157   1.360       .  A
N153        H185   1.041       .  S
N154        C161   1.356       .  A
N154        C162   1.354       .  A
N155        C160   1.359   1_655  A
N155        C159   1.360       .  A
N155        H186   1.042       .  S
N156        C163   1.353       .  A
N156        C164   1.354       .  A
C157        C165   1.389       .  A
C157        C173   1.430       .  A
C158        C174   1.424       .  A
C158        C166   1.386       .  A
C159        C167   1.389       .  A
C159        C176   1.431       .  A
C160        C175   1.423       .  A
C160        C168   1.386       .  A
C161        C173   1.419       .  A
C161        C169   1.385       .  A
C162        C176   1.419       .  A
C162        C170   1.386       .  A
C163        C171   1.387       .  A
C163        C174   1.416       .  A
C164        C172   1.386       .  A
C164        C175   1.414       .  A
C165        C166   1.381   1_655  A
C165        H177   1.082       .  S
C166        H178   1.082       .  S
C167        C168   1.380   1_655  A
C167        H179   1.082       .  S
C168        H180   1.082       .  S
C169        C170   1.375       .  A
C169        H181   1.082       .  S
C170        H182   1.082       .  S
C171        C172   1.373       .  A
C171        H183   1.082       .  S
C172        H184   1.082       .  S
C173        C492   1.520       .  S
C174        C332   1.498       .  S
C175        C309   1.498       .  S
C176        C392   1.519       .  S
C187        C299   1.577       .  S
C187        C312   1.587       .  S
C187        C349   1.562       .  S
C187        C562   1.570       .  S
N188        C193   1.360   1_565  A
N188        C192   1.360       .  A
N188        H220   1.038       .  S
N189        C196   1.354       .  A
N189        C197   1.354       .  A
N190        C195   1.358   1_565  A
N190        C194   1.358       .  A
N190        H221   1.036       .  S
N191        C198   1.354       .  A
N191        C199   1.355       .  A
C192        C200   1.387       .  A
C192        C208   1.427       .  A
C193        C209   1.429       .  A
C193        C201   1.388       .  A
C194        C202   1.388       .  A
C194        C211   1.425       .  A
C195        C210   1.424       .  A
C195        C203   1.387       .  A
C196        C208   1.416       .  A
C196        C204   1.386       .  A
C197        C211   1.416       .  A
C197        C205   1.387       .  A
C198        C206   1.389       .  A
C198        C209   1.422       .  A
C199        C207   1.384       .  A
C199        C210   1.415       .  A
C200        C201   1.379   1_565  A
C200        H212   1.082       .  S
C201        H213   1.082       .  S
C202        C203   1.378   1_565  A
C202        H214   1.082       .  S
C203        H215   1.082       .  S
C204        C205   1.372       .  A
C204        H216   1.082       .  S
C205        H217   1.082       .  S
C206        C207   1.372       .  A
C206        H218   1.082       .  S
C207        H219   1.082       .  S
C208        C282   1.500       .  S
C209        C289   1.508       .  S
C210        C302   1.496       .  S
C211        C322   1.494       .  S
C222        C272   1.571       .  S
C222        C292   1.572       .  S
C222        C342   1.569       .  S
C222        C569   1.546       .  S
C223        C259   1.576       .  S
C223        C279   1.568       .  S
C223        C422   1.565       .  S
C223        C542   1.550       .  S
N224        C229   1.360       .  A
N224        C228   1.361   1_655  A
N224        H256   1.036       .  S
N225        C232   1.355       .  A
N225        C233   1.354       .  A
N226        C231   1.358       .  A
N226        C230   1.357   1_655  A
N226        H257   1.038       .  S
N227        C234   1.355       .  A
N227        C235   1.358       .  A
C228        C236   1.388       .  A
C228        C244   1.434       .  A
C229        C245   1.427       .  A
C229        C237   1.386       .  A
C230        C238   1.387       .  A
C230        C247   1.424       .  A
C231        C246   1.427       .  A
C231        C239   1.388       .  A
C232        C244   1.418       .  A
C232        C240   1.387       .  A
C233        C247   1.415       .  A
C233        C241   1.386       .  A
C234        C242   1.388       .  A
C234        C245   1.422       .  A
C235        C243   1.386       .  A
C235        C246   1.421       .  A
C236        C237   1.382   1_455  A
C236        H248   1.082       .  S
C237        H249   1.082       .  S
C238        C239   1.381   1_455  A
C238        H250   1.082       .  S
C239        H251   1.082       .  S
C240        C241   1.369       .  A
C240        H252   1.082       .  S
C241        H253   1.082       .  S
C242        C243   1.370       .  A
C242        H254   1.081       .  S
C243        H255   1.081       .  S
C244        C262   1.515       .  S
C245        C449   1.502       .  S
C246        C362   1.512       .  S
C247        C269   1.500       .  S
C258        C259   1.424       .  A
C258        C263   1.395       .  A
C258        H264   1.077       .  S
C259        C260   1.413       .  A
C260        C261   1.415       .  A
C260        H265   1.083       .  S
C261        C262   1.415       .  A
C261        H266   1.083       .  S
C262        C263   1.397       .  A
C263        H267   1.083       .  S
C268        C269   1.410       .  A
C268        C273   1.409       .  A
C268        H274   1.083       .  S
C269        C270   1.396       .  A
C270        C271   1.395       .  A
C270        H275   1.084       .  S
C271        C272   1.424       .  A
C271        H276   1.080       .  S
C272        C273   1.412       .  A
C273        H277   1.083       .  S
C278        C279   1.418       .  A
C278        C283   1.402       .  A
C278        H284   1.082       .  S
C279        C280   1.417       .  A
C280        C281   1.408       .  A
C280        H285   1.079       .  S
C281        C282   1.404       .  A
C281        H286   1.083       .  S
C282        C283   1.400       .  A
C283        H287   1.083       .  S
C288        C289   1.402       .  A
C288        C293   1.403       .  A
C288        H294   1.083       .  S
C289        C290   1.405       .  A
C290        C291   1.401       .  A
C290        H295   1.083       .  S
C291        C292   1.418       .  A
C291        H296   1.077       .  S
C292        C293   1.421       .  A
C293        H297   1.083       .  S
C298        C299   1.420       .  A
C298        C303   1.399       .  A
C298        H304   1.083       .  S
C299        C300   1.420       .  A
C300        C301   1.407       .  A
C300        H305   1.079       .  S
C301        C302   1.402       .  A
C301        H306   1.083       .  S
C302        C303   1.398       .  A
C303        H307   1.083       .  S
C308        C309   1.402       .  A
C308        C313   1.409       .  A
C308        H314   1.083       .  S
C309        C310   1.396       .  A
C310        C311   1.400       .  A
C310        H315   1.083       .  S
C311        C312   1.421       .  A
C311        H316   1.071       .  S
C312        C313   1.422       .  A
C313        H317   1.078       .  S
C318        C319   1.418       .  A
C318        C323   1.406       .  A
C318        H324   1.080       .  S
C319        C320   1.421       .  A
C320        C321   1.398       .  A
C320        H325   1.083       .  S
C321        C322   1.398       .  A
C321        H326   1.083       .  S
C322        C323   1.402       .  A
C323        H327   1.083       .  S
C328        C329   1.423       .  A
C328        C333   1.408       .  A
C328        H334   1.078       .  S
C329        C330   1.422       .  A
C330        C331   1.401       .  A
C330        H335   1.071       .  S
C331        C332   1.396       .  A
C331        H336   1.083       .  S
C332        C333   1.401       .  A
C333        H337   1.083       .  S
C338        C339   1.409       .  A
C338        C343   1.408       .  A
C338        H344   1.083       .  S
C339        C340   1.410       .  A
C340        C341   1.405       .  A
C340        H345   1.082       .  S
C341        C342   1.412       .  A
C341        H346   1.078       .  S
C342        C343   1.419       .  A
C343        H347   1.082       .  S
C348        C349   1.414       .  A
C348        C353   1.405       .  A
C348        H354   1.081       .  S
C349        C350   1.419       .  A
C350        C351   1.398       .  A
C350        H355   1.083       .  S
C351        C352   1.399       .  A
C351        H356   1.083       .  S
C352        C353   1.404       .  A
C353        H357   1.083       .  S
C358        C359   1.415       .  A
C358        C363   1.413       .  A
C358        H364   1.083       .  S
C359        C360   1.421       .  A
C360        C361   1.393       .  A
C360        H365   1.076       .  S
C361        C362   1.398       .  A
C361        H366   1.083       .  S
C362        C363   1.412       .  A
C363        H367   1.083       .  S
C368        C369   1.416       .  A
C368        C373   1.408       .  A
C368        H374   1.079       .  S
C369        C370   1.417       .  A
C370        C371   1.394       .  A
C370        H375   1.083       .  S
C371        C372   1.397       .  A
C371        H376   1.083       .  S
C372        C373   1.404       .  A
C373        H377   1.083       .  S
C378        C379   1.399       .  A
C378        C383   1.401       .  A
C378        H384   1.083       .  S
C379        C380   1.402       .  A
C380        C381   1.399       .  A
C380        H385   1.083       .  S
C381        C382   1.414       .  A
C381        H386   1.083       .  S
C382        C383   1.418       .  A
C383        H387   1.078       .  S
C388        C389   1.419       .  A
C388        C393   1.401       .  A
C388        H394   1.078       .  S
C389        C390   1.410       .  A
C390        C391   1.406       .  A
C390        H395   1.079       .  S
C391        C392   1.413       .  A
C391        H396   1.082       .  S
C392        C393   1.404       .  A
C393        H397   1.083       .  S
C398        C399   1.419       .  A
C398        C403   1.402       .  A
C398        H404   1.081       .  S
C399        C400   1.418       .  A
C400        C401   1.406       .  A
C400        H405   1.079       .  S
C401        C402   1.405       .  A
C401        H406   1.083       .  S
C402        C403   1.403       .  A
C403        H407   1.083       .  S
C408        C409   1.419       .  A
C408        C413   1.390       .  A
C408        H414   1.081       .  S
C409        C410   1.414       .  A
C410        C411   1.410       .  A
C410        H415   1.082       .  S
C411        C412   1.407       .  A
C411        H416   1.083       .  S
C412        C413   1.394       .  A
C413        H417   1.084       .  S
C418        C419   1.406       .  A
C418        C423   1.413       .  A
C418        H424   1.083       .  S
C419        C420   1.398       .  A
C420        C421   1.395       .  A
C420        H425   1.083       .  S
C421        C422   1.419       .  A
C421        H426   1.083       .  S
C422        C423   1.418       .  A
C423        H427   1.080       .  S
C428        C429   1.404       .  A
C428        C433   1.408       .  A
C428        H434   1.083       .  S
C429        C430   1.398       .  A
C430        C431   1.395       .  A
C430        H435   1.083       .  S
C431        C432   1.417       .  A
C431        H436   1.083       .  S
C432        C433   1.416       .  A
C433        H437   1.081       .  S
C438        C439   1.412       .  A
C438        C443   1.413       .  A
C438        H444   1.083       .  S
C439        C440   1.423       .  A
C440        C441   1.387       .  A
C440        H445   1.077       .  S
C441        C442   1.395       .  A
C441        H446   1.083       .  S
C442        C443   1.414       .  A
C443        H447   1.083       .  S
C448        C449   1.409       .  A
C448        C453   1.415       .  A
C448        H454   1.083       .  S
C449        C450   1.397       .  A
C450        C451   1.393       .  A
C450        H455   1.084       .  S
C451        C452   1.419       .  A
C451        H456   1.083       .  S
C452        C453   1.416       .  A
C453        H457   1.080       .  S
C458        C459   1.414       .  A
C458        C463   1.403       .  A
C458        H464   1.079       .  S
C459        C460   1.417       .  A
C460        C461   1.397       .  A
C460        H465   1.082       .  S
C461        C462   1.398       .  A
C461        H466   1.083       .  S
C462        C463   1.403       .  A
C463        H467   1.083       .  S
C468        C469   1.419       .  A
C468        C473   1.407       .  A
C468        H474   1.079       .  S
C469        C470   1.420       .  A
C470        C471   1.402       .  A
C470        H475   1.082       .  S
C471        C472   1.401       .  A
C471        H476   1.083       .  S
C472        C473   1.407       .  A
C473        H477   1.083       .  S
C478        C479   1.413       .  A
C478        C483   1.412       .  A
C478        H484   1.082       .  S
C479        C480   1.421       .  A
C480        C481   1.391       .  A
C480        H485   1.081       .  S
C481        C482   1.395       .  A
C481        H486   1.084       .  S
C482        C483   1.409       .  A
C483        H487   1.083       .  S
C488        C489   1.414       .  A
C488        C493   1.411       .  A
C488        H494   1.079       .  S
C489        C490   1.418       .  A
C490        C491   1.402       .  A
C490        H495   1.079       .  S
C491        C492   1.404       .  A
C491        H496   1.083       .  S
C492        C493   1.413       .  A
C493        H497   1.082       .  S
C498        C499   1.393       .  A
C498        C503   1.391       .  A
C498        H504   1.083       .  S
C499        C500   1.398       .  A
C500        C501   1.388       .  A
C500        H505   1.084       .  S
C501        C502   1.411       .  A
C501        H506   1.081       .  S
C502        C503   1.418       .  A
C503        H507   1.083       .  S
C508        C509   1.395       .  A
C508        C513   1.391       .  A
C508        H514   1.083       .  S
C509        C510   1.397       .  A
C510        C511   1.389       .  A
C510        H515   1.084       .  S
C511        C512   1.413       .  A
C511        H516   1.081       .  S
C512        C513   1.415       .  A
C513        H517   1.083       .  S
C518        C519   1.393       .  A
C518        C523   1.390       .  A
C518        H524   1.083       .  S
C519        C520   1.396       .  A
C520        C521   1.388       .  A
C520        H525   1.083       .  S
C521        C522   1.414       .  A
C521        H526   1.075       .  S
C522        C523   1.422       .  A
C523        H527   1.075       .  S
C528        C529   1.394       .  A
C528        C533   1.385       .  A
C528        H534   1.084       .  S
C529        C530   1.393       .  A
C530        C531   1.387       .  A
C530        H535   1.084       .  S
C531        C532   1.415       .  A
C531        H536   1.079       .  S
C532        C533   1.414       .  A
C533        H537   1.083       .  S
C538        C539   1.400       .  A
C538        C543   1.388       .  A
C538        H544   1.083       .  S
C539        C540   1.398       .  A
C540        C541   1.392       .  A
C540        H545   1.083       .  S
C541        C542   1.417       .  A
C541        H546   1.083       .  S
C542        C543   1.412       .  A
C543        H547   1.079       .  S
C548        C549   1.401       .  A
C548        C553   1.393       .  A
C548        H554   1.083       .  S
C549        C550   1.398       .  A
C550        C551   1.394       .  A
C550        H555   1.083       .  S
C551        C552   1.416       .  A
C551        H556   1.077       .  S
C552        C553   1.415       .  A
C553        H557   1.083       .  S
C558        C559   1.395       .  A
C558        C563   1.392       .  A
C558        H564   1.083       .  S
C559        C560   1.394       .  A
C560        C561   1.390       .  A
C560        H565   1.083       .  S
C561        C562   1.418       .  A
C561        H566   1.076       .  S
C562        C563   1.421       .  A
C563        H567   1.073       .  S
C568        C569   1.416       .  A
C568        C573   1.396       .  A
C568        H574   1.078       .  S
C569        C570   1.414       .  A
C570        C571   1.379       .  A
C570        H575   1.082       .  S
C571        C572   1.393       .  A
C571        H576   1.084       .  S
C572        C573   1.396       .  A
C573        H577   1.083       .  S
