geometry optimzed in LAMMPS
_audit_creation_date              2020-12-01 
_audit_creation_method            'lammps2cif' 
_symmetry_space_group_name_H-M    'P1' 
_symmetry_Int_Tables_number       1 
_symmetry_cell_setting            triclinic 
loop_ 
_symmetry_equiv_pos_as_xyz 
  x,y,z 
_cell_length_a                    28.45398395 
_cell_length_b                    28.459203122845764 
_cell_length_c                    82.44125055917476 
_cell_angle_alpha                 90.08893739716407 
_cell_angle_beta                  90.22218819000169 
_cell_angle_gamma                 120.08225494331485 
loop_ 
_atom_site_label 
_atom_site_type_symbol 
_atom_site_fract_x 
_atom_site_fract_y 
_atom_site_fract_z 
_atom_site_charge 
O1          O  0.04036154  0.70555557  0.25869057    -0.71200
O2          O  0.03903800  0.83816692  0.25007529    -0.71500
O3          O  0.05623713  0.79349483  0.27638708    -0.71300
O4          O  0.02753634  0.75393841  0.23226501    -0.71300
O5          O  0.94056209  0.71228851  0.23636137    -0.71300
O6          O  0.97011112  0.75207683  0.28185265    -0.71300
O7          O  0.95234803  0.79479181  0.25488627    -0.71200
O8          O  0.95375380  0.66628558  0.26327906    -0.71400
V9          V  0.03913529  0.77179880  0.25450393     1.35200
V10         V  0.95592991  0.73204212  0.25906608     1.35200
C11         C  0.99589375  0.66274332  0.26205084     0.78000
C12         C  0.99427690  0.83787366  0.25086183     0.78100
C13         C  0.01918278  0.78161145  0.28658924     0.77900
C14         C  0.98007692  0.72797716  0.22654728     0.77900
O15         O  0.24907548  0.90887360  0.41786276    -0.71200
O16         O  0.11431061  0.90820904  0.42378863    -0.71500
O17         O  0.16316456  0.89106547  0.39872527    -0.71300
O18         O  0.19599904  0.92112660  0.44305438    -0.71300
O19         O  0.24026722  0.00799879  0.43864309    -0.71300
O20         O  0.20101047  0.97693833  0.39314626    -0.71300
O21         O  0.15842588  0.99537378  0.41975701    -0.71200
O22         O  0.28734770  0.99457139  0.41194426    -0.71400
V23         V  0.18172591  0.90897944  0.42071277     1.35200
V24         V  0.22124219  0.99203085  0.41590470     1.35200
C25         C  0.29156167  0.95317105  0.41412235     0.78000
C26         C  0.11469329  0.95299759  0.42295796     0.78100
C27         C  0.17286988  0.92757951  0.38851626     0.77900
C28         C  0.22200906  0.96863358  0.44862309     0.77900
O29         O  0.90021667  0.26934219  0.25872599    -0.71200
O30         O  0.89425421  0.13267276  0.25066971    -0.71500
O31         O  0.88305082  0.18198984  0.27671443    -0.71300
O32         O  0.90678947  0.21610438  0.23253977    -0.71300
O33         O  0.99416376  0.25472862  0.23576118    -0.71300
O34         O  0.96974949  0.22149258  0.28154238    -0.71300
O35         O  0.98130291  0.17390282  0.25506935    -0.71200
O36         O  0.98730080  0.30654712  0.26237080    -0.71400
V37         V  0.89778195  0.20114123  0.25479548     1.35200
V38         V  0.98143847  0.23869428  0.25866086     1.35200
C39         C  0.94594343  0.31161601  0.26155505     0.78000
C40         C  0.93810851  0.13116767  0.25149605     0.78100
C41         C  0.92110045  0.19277560  0.28650481     0.77900
C42         C  0.95330728  0.23860299  0.22634649     0.77900
O43         O  0.69129293  0.06096465  0.41545821    -0.71200
O44         O  0.82384029  0.05761100  0.42187749    -0.71500
O45         O  0.77715570  0.07755676  0.39676464    -0.71300
O46         O  0.74150419  0.04498448  0.44067702    -0.71300
O47         O  0.69970665  0.95838127  0.43558619    -0.71300
O48         O  0.73428986  0.99200346  0.39025609    -0.71300
O49         O  0.77961604  0.97168280  0.41575195    -0.71200
O50         O  0.65053183  0.97455006  0.41012926    -0.71400
V51         V  0.75742540  0.05864297  0.41851662     1.35200
V52         V  0.71662212  0.97587833  0.41296867     1.35200
C53         C  0.64770203  0.01674882  0.41237499     0.78000
C54         C  0.82326044  0.01303862  0.41989714     0.78100
C55         C  0.76484726  0.04135231  0.38616722     0.77900
C56         C  0.71605222  0.99703467  0.44581740     0.77900
O57         O  0.30887137  0.05087955  0.59427758    -0.71200
O58         O  0.17480162  0.04831032  0.58435705    -0.71500
O59         O  0.23537750  0.06726093  0.61100574    -0.71300
O60         O  0.24879702  0.03622704  0.56752316    -0.71300
O61         O  0.20251886  0.94943887  0.57202286    -0.71300
O62         O  0.19109271  0.98134354  0.61688649    -0.71300
O63         O  0.13139688  0.96204472  0.58980296    -0.71200
O64         O  0.26165657  0.96453520  0.59929119    -0.71400
V65         V  0.24133099  0.04903623  0.58945647     1.35200
V66         V  0.19780194  0.96607505  0.59446090     1.35200
C67         C  0.30741513  0.00675542  0.59800298     0.78000
C68         C  0.13021438  0.00363098  0.58537707     0.78100
C69         C  0.20955520  0.03047687  0.62120781     0.77900
C70         C  0.22686335  0.98850382  0.56210613     0.77900
O71         O  0.30726541  0.26431026  0.74879658    -0.71200
O72         O  0.17373121  0.13159390  0.75785336    -0.71500
O73         O  0.23678365  0.17511763  0.73183402    -0.71300
O74         O  0.24631296  0.21895734  0.77516777    -0.71300
O75         O  0.19880054  0.25777242  0.77005344    -0.71300
O76         O  0.19212513  0.21568059  0.72514277    -0.71300
O77         O  0.12995280  0.17333858  0.75152162    -0.71200
O78         O  0.25945058  0.30277313  0.74360898    -0.71400
V79         V  0.24020545  0.19833613  0.75329481     1.35200
V80         V  0.19606961  0.23667841  0.74765643     1.35200
C81         C  0.30516584  0.30650692  0.74497722     0.78000
C82         C  0.12884719  0.13064618  0.75603196     0.78100
C83         C  0.21256822  0.18651918  0.72114000     0.77900
C84         C  0.22438074  0.24507297  0.78018398     0.77900
O85         O  0.60217558  0.90627229  0.59016899    -0.71200
O86         O  0.73376412  0.90221664  0.58157442    -0.71500
O87         O  0.67081919  0.88448096  0.60750420    -0.71300
O88         O  0.66425046  0.91945140  0.56399375    -0.71300
O89         O  0.71550164  0.00558111  0.56906973    -0.71300
O90         O  0.71571594  0.96978003  0.61426627    -0.71300
O91         O  0.77959714  0.98731041  0.58855845    -0.71200
O92         O  0.65216906  0.99278108  0.59480103    -0.71400
V93         V  0.66837229  0.90471199  0.58597531     1.35200
V94         V  0.71451884  0.98714850  0.59163504     1.35200
C95         C  0.60560684  0.95172421  0.59336460     0.78000
C96         C  0.77929159  0.94539106  0.58365996     0.78100
C97         C  0.69560064  0.92010622  0.61820200     0.77900
C98         C  0.69043020  0.96733919  0.55883924     0.77900
O99         O  0.60186384  0.69949064  0.74584346    -0.71200
O100        O  0.73748516  0.82934910  0.75542226    -0.71500
O101        O  0.67670725  0.78600547  0.72887642    -0.71300
O102        O  0.66177392  0.74586696  0.77271992    -0.71300
O103        O  0.70490345  0.70184909  0.76897880    -0.71300
O104        O  0.71948433  0.74240218  0.72370656    -0.71300
O105        O  0.77881751  0.78389281  0.75096422    -0.71200
O106        O  0.64692048  0.65765651  0.74152065    -0.71400
V107        V  0.67008671  0.76409877  0.75061116     1.35200
V108        V  0.71154336  0.72214385  0.74635564     1.35200
C109        C  0.60211008  0.65620978  0.74214862     0.78000
C110        C  0.78137035  0.82794096  0.75472853     0.78100
C111        C  0.70149800  0.77295571  0.71889630     0.77900
C112        C  0.68162379  0.71877480  0.77858537     0.77900
O113        O  0.68540119  0.62955270  0.92301206    -0.71200
O114        O  0.81784986  0.76416622  0.91514293    -0.71500
O115        O  0.77276001  0.70121209  0.94104187    -0.71300
O116        O  0.73341353  0.69137356  0.89706470    -0.71300
O117        O  0.69076204  0.73550059  0.90152572    -0.71300
O118        O  0.73284386  0.74717628  0.94674538    -0.71300
O119        O  0.77416879  0.80725249  0.91975454    -0.71200
O120        O  0.64603444  0.67638481  0.92828613    -0.71400
V121        V  0.75146256  0.69736074  0.91922743     1.35200
V122        V  0.71162869  0.74054511  0.92407155     1.35200
C123        C  0.64247539  0.63087082  0.92634529     0.78000
C124        C  0.81751209  0.80860363  0.91594026     0.78100
C125        C  0.76205622  0.72722868  0.95129605     0.77900
C126        C  0.70590079  0.71138332  0.89162942     0.77900
O127        O  0.88353409  0.61996222  0.08074639    -0.71200
O128        O  0.88048152  0.75178936  0.08967425    -0.71500
O129        O  0.86614043  0.69150487  0.06317324    -0.71300
O130        O  0.89413257  0.67982813  0.10736341    -0.71300
O131        O  0.98108056  0.72824553  0.10346463    -0.71300
O132        O  0.95253302  0.73744775  0.05807286    -0.71300
O133        O  0.96709482  0.79712944  0.08482184    -0.71200
O134        O  0.97030236  0.66918175  0.07666124    -0.71400
V135        V  0.88268464  0.68639227  0.08509996     1.35200
V136        V  0.96597507  0.73184109  0.08079193     1.35200
C137        C  0.92871046  0.62285033  0.07762953     0.78000
C138        C  0.92445486  0.79706665  0.08874709     0.78100
C139        C  0.90372857  0.71797039  0.05321607     0.77900
C140        C  0.94159473  0.70295477  0.11316530     0.77900
O141        O  0.24301768  0.33958441  0.92418825    -0.71200
O142        O  0.10866956  0.20504023  0.91698619    -0.71500
O143        O  0.15709560  0.26953513  0.94274246    -0.71300
O144        O  0.19091609  0.27629485  0.89860733    -0.71300
O145        O  0.23543170  0.23377551  0.90273242    -0.71300
O146        O  0.19559659  0.22194657  0.94807978    -0.71300
O147        O  0.15304958  0.16236322  0.92110307    -0.71200
O148        O  0.28179136  0.29235173  0.92972782    -0.71400
V149        V  0.17590967  0.27195836  0.92081396     1.35200
V150        V  0.21582824  0.22866490  0.92538031     1.35200
C151        C  0.28582453  0.33794335  0.92766623     0.78000
C152        C  0.10926457  0.16068227  0.91761089     0.78100
C153        C  0.16730572  0.24266040  0.95281059     0.77900
C154        C  0.21803280  0.25635085  0.89296980     0.77900
O155        O  0.02807188  0.32632485  0.08062277    -0.71200
O156        O  0.02785595  0.19297905  0.09013088    -0.71500
O157        O  0.04504702  0.25355348  0.06358594    -0.71300
O158        O  0.01621497  0.26708345  0.10719236    -0.71300
O159        O  0.92916460  0.21963011  0.10309866    -0.71300
O160        O  0.95890211  0.20847551  0.05783026    -0.71300
O161        O  0.94134079  0.14896417  0.08481671    -0.71200
O162        O  0.94137007  0.27782197  0.07605612    -0.71400
V163        V  0.02765813  0.25928550  0.08522437     1.35200
V164        V  0.94444276  0.21484463  0.08046794     1.35200
C165        C  0.98310613  0.32390728  0.07730942     0.78000
C166        C  0.98320661  0.14815480  0.08915257     0.78100
C167        C  0.00801278  0.22768084  0.05335036     0.77900
C168        C  0.96896937  0.24503428  0.11285504     0.77900
C169        C  0.07443667  0.21314398  0.01945391     0.30300
C170        C  0.11520722  0.20752498  0.01143730    -0.36000
C171        C  0.12041054  0.21792603  0.99463408     0.16300
C172        C  0.08796026  0.23341338  0.98650573     0.22100
C173        C  0.04670353  0.23800190  0.99443361    -0.34100
C174        C  0.04097852  0.22686588  0.01111653     0.16200
O175        O  0.06522092  0.20940722  0.03522478    -0.26200
C176        C  0.02445503  0.21953137  0.03703108     0.06000
C177        C  0.00751451  0.23046723  0.02237851    -0.31000
O178        O  0.10102771  0.24388643  0.97110872    -0.22900
C179        C  0.14212241  0.23459621  0.96904892    -0.02900
C180        C  0.15589606  0.21781946  0.98330932    -0.17300
H181        H  0.14178848  0.19704826  0.01792259     0.20700
H182        H  0.02149645  0.25049864  0.98806118     0.19100
H183        H  0.97782155  0.24307611  0.02045903     0.19000
H184        H  0.18783191  0.20823297  0.98513971     0.14900
C185        C  0.98968866  0.45116859  0.07433388     0.30300
C186        C  0.01331246  0.50789712  0.07365395    -0.36000
C187        C  0.97719488  0.52815410  0.07407203     0.16300
C188        C  0.92157364  0.49531270  0.07521199     0.22100
C189        C  0.89788647  0.43856160  0.07563961    -0.34100
C190        C  0.93398170  0.41830916  0.07508899     0.16200
O191        O  0.01569008  0.42330004  0.07480576    -0.26200
C192        C  0.97583648  0.37177286  0.07567096     0.06000
C193        C  0.92440490  0.36661054  0.07581948    -0.31000
O194        O  0.89589873  0.52335341  0.07632069    -0.22900
C195        C  0.93576659  0.57493836  0.07571694    -0.02900
C196        C  0.98694746  0.58000646  0.07425625    -0.17300
H197        H  0.05686730  0.53450907  0.07314343     0.20700
H198        H  0.85442772  0.41201357  0.07663389     0.19100
H199        H  0.88537531  0.32981939  0.07685105     0.19000
H200        H  0.02609322  0.61690893  0.07394195     0.14900
C201        C  0.96948944  0.93462780  0.09441318     0.30300
C202        C  0.00939818  0.98983779  0.09473874    -0.36000
C203        C  0.99047815  0.02669454  0.09486970     0.16300
C204        C  0.93583164  0.00997140  0.09474887     0.22100
C205        C  0.89576786  0.95459019  0.09470889    -0.34100
C206        C  0.91477549  0.91764109  0.09449311     0.16200
O207        O  0.97869585  0.89407371  0.09287257    -0.26200
C208        C  0.92952919  0.85017919  0.09202400     0.06000
C209        C  0.88777847  0.86210334  0.09306390    -0.31000
O210        O  0.92715053  0.05100223  0.09337204    -0.22900
C211        C  0.97669205  0.09462574  0.09267231    -0.02900
C212        C  0.01792002  0.08211468  0.09368408    -0.17300
H213        H  0.05226834  0.00308490  0.09421475     0.20700
H214        H  0.85288600  0.94136436  0.09416533     0.19100
H215        H  0.84446212  0.83450853  0.09206134     0.19000
H216        H  0.06126343  0.10928237  0.09264813     0.14900
C217        C  0.50273159  0.53831257  0.92636640     0.30300
C218        C  0.44759593  0.52329896  0.92540919    -0.36000
C219        C  0.41003866  0.46772780  0.92685937     0.16300
C220        C  0.42597868  0.42973299  0.92910859     0.22100
C221        C  0.48124259  0.44466179  0.92980213    -0.34100
C222        C  0.51887607  0.50034219  0.92830313     0.16200
O223        O  0.54413656  0.58812424  0.92562827    -0.26200
C224        C  0.58773560  0.58252379  0.92698028     0.06000
C225        C  0.57465193  0.52857221  0.92854222    -0.31000
O226        O  0.38423931  0.38007265  0.93013577    -0.22900
C227        C  0.34082903  0.38601349  0.92849785    -0.02900
C228        C  0.35439216  0.43982748  0.92634968    -0.17300
H229        H  0.43491662  0.55302569  0.92371916     0.20700
H230        H  0.49392774  0.41491046  0.93142099     0.19100
H231        H  0.60195733  0.51268772  0.92984692     0.19000
H232        H  0.32743406  0.45583493  0.92440931     0.14900
C233        C  0.91002848  0.94602101  0.90964476     0.30300
C234        C  0.92574442  0.00120203  0.90802899    -0.36000
C235        C  0.98122172  0.03844415  0.91024946     0.16300
C236        C  0.01823989  0.02194066  0.91366375     0.22100
C237        C  0.00273538  0.96691886  0.91497547    -0.34100
C238        C  0.94741709  0.92981735  0.91283965     0.16200
O239        O  0.85988096  0.90494210  0.90968751    -0.26200
C240        C  0.86521300  0.86187163  0.91275137     0.06000
C241        C  0.91884453  0.87475648  0.91471279    -0.31000
O242        O  0.06718513  0.06297451  0.91634142    -0.22900
C243        C  0.06201022  0.10665759  0.91467862    -0.02900
C244        C  0.00934870  0.09412014  0.91077389    -0.17300
H245        H  0.89643710  0.01419269  0.90588897     0.20700
H246        H  0.03157584  0.95407799  0.91807644     0.19100
H247        H  0.93411854  0.84816094  0.91814887     0.19000
H248        H  0.99386956  0.12162393  0.90910473     0.14900
C249        C  0.84339583  0.74032490  0.01896531     0.30300
C250        C  0.80454625  0.74852035  0.01069981    -0.36000
C251        C  0.80380291  0.74443089  0.99366665     0.16300
C252        C  0.83885499  0.73268587  0.98548611     0.22100
C253        C  0.87855419  0.72591609  0.99370299    -0.34100
C254        C  0.87958245  0.73043597  0.01068639     0.16200
O255        O  0.84829937  0.73820455  0.03484032    -0.26200
C256        C  0.88884816  0.72791458  0.03685630     0.06000
C257        C  0.91025516  0.72304625  0.02220347    -0.31000
O258        O  0.82865078  0.72628779  0.96979311    -0.22900
C259        C  0.78682483  0.73449236  0.96764931    -0.02900
C260        C  0.76983305  0.74661309  0.98212187    -0.17300
H261        H  0.77573442  0.75579784  0.01715101     0.20700
H262        H  0.90566952  0.71608557  0.98729937     0.19100
H263        H  0.94153615  0.71259124  0.02031982     0.19000
H264        H  0.73606623  0.75340925  0.98396636     0.14900
C265        C  0.67572333  0.72119048  0.85065331     0.30300
C266        C  0.66260435  0.74237301  0.83713439    -0.36000
C267        C  0.66913277  0.72436132  0.82186246     0.16300
C268        C  0.68754306  0.68814964  0.81984465     0.22100
C269        C  0.69994668  0.66634172  0.83338887    -0.34100
C270        C  0.69338187  0.68435172  0.84868319     0.16200
O271        O  0.67576654  0.73485200  0.86604218    -0.26200
C272        C  0.69367856  0.70624489  0.87404226     0.06000
C273        C  0.70496931  0.67406777  0.86382307    -0.31000
O274        O  0.69383456  0.67976531  0.80435312    -0.22900
C275        C  0.67867285  0.71075135  0.79638327    -0.02900
C276        C  0.66275986  0.73900899  0.80671995    -0.17300
H277        H  0.64961715  0.77201883  0.83839845     0.20700
H278        H  0.71518642  0.63849807  0.83210446     0.19100
H279        H  0.72141384  0.64829256  0.86706802     0.19000
H280        H  0.65027229  0.76802793  0.80351018     0.14900
C281        C  0.71615583  0.85258728  0.68493569     0.30300
C282        C  0.71965696  0.89800203  0.67701614    -0.36000
C283        C  0.71373301  0.89425327  0.66008283     0.16300
C284        C  0.70433630  0.84848245  0.65162682     0.22100
C285        C  0.70184850  0.80337492  0.65952277    -0.34100
C286        C  0.70845643  0.80740861  0.67646974     0.16200
O287        O  0.71667969  0.84631460  0.70072855    -0.26200
C288        C  0.71031977  0.79695753  0.70256721     0.06000
C289        C  0.70528785  0.77068204  0.68784508    -0.31000
O290        O  0.69691818  0.85232152  0.63601016    -0.22900
C291        C  0.70221229  0.90137857  0.63431275    -0.02900
C292        C  0.71316514  0.92966100  0.64891063    -0.17300
H293        H  0.72525201  0.93326919  0.68366313     0.20700
H294        H  0.69407337  0.76723165  0.65294087     0.19100
H295        H  0.69690687  0.72958356  0.68586947     0.19000
H296        H  0.71832597  0.96950995  0.65103663     0.14900
C297        C  0.21396225  0.27293275  0.85103348     0.30300
C298        C  0.19419860  0.28370802  0.83667708    -0.36000
C299        C  0.21373263  0.27451747  0.82212144     0.16300
C300        C  0.25053945  0.25642940  0.82185947     0.22100
C301        C  0.27070152  0.24621415  0.83621260    -0.34100
C302        C  0.25065455  0.25472204  0.85075397     0.16200
O303        O  0.19895747  0.27615810  0.86586037    -0.26200
C304        C  0.22598745  0.25957742  0.87527887     0.06000
C305        C  0.25895943  0.24561894  0.86655147    -0.31000
O306        O  0.26017217  0.24632297  0.80706241    -0.22900
C307        C  0.22932997  0.25798536  0.79761937    -0.02900
C308        C  0.19967705  0.27623623  0.80629899    -0.17300
H309        H  0.16428783  0.29658025  0.83686029     0.20700
H310        H  0.29851440  0.23071384  0.83601797     0.19100
H311        H  0.28444681  0.23034124  0.87111444     0.19000
H312        H  0.16989692  0.28603155  0.80174621     0.14900
C313        C  0.89904981  0.95544623  0.75937253     0.30300
C314        C  0.93069822  0.01217613  0.75921106    -0.36000
C315        C  0.98715088  0.03378849  0.75968002     0.16300
C316        C  0.01144942  0.00226563  0.76029474     0.22100
C317        C  0.97972098  0.94539887  0.76055359    -0.34100
C318        C  0.92313515  0.92372004  0.76004455     0.16200
O319        O  0.84552997  0.92648186  0.75801102    -0.26200
C320        C  0.83529781  0.87548976  0.75780935     0.06000
C321        C  0.88202074  0.87149017  0.75908768    -0.31000
O322        O  0.06520767  0.03152685  0.75969194    -0.22900
C323        C  0.07507647  0.08238139  0.75870133    -0.02900
C324        C  0.02799000  0.08588282  0.75869389    -0.17300
H325        H  0.91266300  0.03772216  0.75830187     0.20700
H326        H  0.99780173  0.91979988  0.76066068     0.19100
H327        H  0.88529328  0.83520891  0.75870321     0.19000
H328        H  0.02435322  0.12181001  0.75748409     0.14900
C329        C  0.39771737  0.44504509  0.74086267     0.30300
C330        C  0.41414679  0.50053216  0.74147604    -0.36000
C331        C  0.46973364  0.53673794  0.73935202     0.16300
C332        C  0.50621577  0.51917296  0.73651997     0.22100
C333        C  0.48965835  0.46364458  0.73571911    -0.34100
C334        C  0.43425494  0.42744048  0.73822060     0.16200
O335        O  0.34832144  0.40463569  0.74343103    -0.26200
C336        C  0.35304853  0.36044935  0.74262462     0.06000
C337        C  0.40571808  0.37198900  0.73943174    -0.31000
O338        O  0.55669059  0.55947319  0.73634209    -0.22900
C339        C  0.55285140  0.60352134  0.73917897    -0.02900
C340        C  0.49956503  0.59201259  0.74101343    -0.17300
H341        H  0.38585558  0.51442528  0.74410413     0.20700
H342        H  0.51842324  0.44974115  0.73402434     0.19100
H343        H  0.42069036  0.34390279  0.73826168     0.19000
H344        H  0.48529929  0.61964883  0.74416877     0.14900
C345        C  0.99229662  0.95683737  0.57908472     0.30300
C346        C  0.93692940  0.91694413  0.57846555    -0.36000
C347        C  0.90008991  0.93606244  0.57847313     0.16300
C348        C  0.91715166  0.99076018  0.57903547     0.22100
C349        C  0.97240962  0.03058467  0.57937080    -0.34100
C350        C  0.00915424  0.01150644  0.57938360     0.16200
O351        O  0.03311655  0.94784809  0.58059904    -0.26200
C352        C  0.07675800  0.99722913  0.58176086     0.06000
C353        C  0.06448068  0.03865917  0.58097172    -0.31000
O354        O  0.87649804  0.99987883  0.58036518    -0.22900
C355        C  0.83251261  0.95066666  0.58057097    -0.02900
C356        C  0.84445941  0.90901283  0.57929716    -0.17300
H357        H  0.92356207  0.87401833  0.57863714     0.20700
H358        H  0.98571237  0.07342623  0.58023218     0.19100
H359        H  0.09174412  0.08191697  0.58233406     0.19000
H360        H  0.81678073  0.86565470  0.57985720     0.14900
C361        C  0.43569349  0.01526394  0.59784269     0.30300
C362        C  0.49143723  0.03789454  0.59471658    -0.36000
C363        C  0.51201094  0.00206412  0.59550960     0.16300
C364        C  0.48025312  0.94752713  0.59899823     0.22100
C365        C  0.42471235  0.92510783  0.60238252    -0.34100
C366        C  0.40421909  0.96101258  0.60170950     0.16200
O367        O  0.40696056  0.04023228  0.59668268    -0.26200
C368        C  0.35638025  0.00140420  0.60000777     0.06000
C369        C  0.35270021  0.95160096  0.60334161    -0.31000
O370        O  0.50786679  0.92127662  0.59855802    -0.22900
C371        C  0.55821813  0.95983328  0.59490548    -0.02900
C372        C  0.56288739  0.01069420  0.59292953    -0.17300
H373        H  0.51682467  0.08021556  0.59155330     0.20700
H374        H  0.39897572  0.88242875  0.60505720     0.19100
H375        H  0.31650231  0.91304686  0.60569912     0.19000
H376        H  0.59880661  0.04866129  0.58985987     0.14900
C377        C  0.19130998  0.09566517  0.65464473     0.30300
C378        C  0.18351937  0.13529277  0.66250744    -0.36000
C379        C  0.19386137  0.14130666  0.67930082     0.16300
C380        C  0.21131524  0.11071253  0.68756633     0.22100
C381        C  0.21826163  0.07070421  0.67978236    -0.34100
C382        C  0.20708083  0.06406639  0.66311490     0.16200
O383        O  0.18787394  0.08594280  0.63891198    -0.26200
C384        C  0.20034912  0.04678212  0.63731436     0.06000
C385        C  0.21232863  0.03123682  0.65200746    -0.31000
O386        O  0.22027047  0.12363840  0.70301412    -0.22900
C387        C  0.20792940  0.16266098  0.70491933    -0.02900
C388        C  0.19101057  0.17549828  0.69054742    -0.17300
H389        H  0.17124736  0.16030779  0.65593458     0.20700
H390        H  0.23216623  0.04686774  0.68627119     0.19100
H391        H  0.22668522  0.00297653  0.65404741     0.19000
H392        H  0.17895139  0.20560665  0.68865404     0.14900
C393        C  0.71491214  0.01115172  0.48800527     0.30300
C394        C  0.72762187  0.04038393  0.50268604    -0.36000
C395        C  0.71072413  0.00930957  0.51690096     0.16300
C396        C  0.68305695  0.95331675  0.51656734     0.22100
C397        C  0.67061738  0.92408792  0.50189273    -0.34100
C398        C  0.68761653  0.95516226  0.48768131     0.16200
O399        O  0.72743318  0.03219333  0.47338250    -0.26200
C400        C  0.70801176  0.98936711  0.46347356     0.06000
C401        C  0.68281608  0.94011853  0.47168832    -0.31000
O402        O  0.67168188  0.93228209  0.53120216    -0.22900
C403        C  0.69231162  0.97510293  0.54113578    -0.02900
C404        C  0.71734966  0.02436140  0.53292423    -0.17300
H405        H  0.74950274  0.08432708  0.50298588     0.20700
H406        H  0.64944498  0.88015390  0.50160404     0.19100
H407        H  0.66430577  0.89951193  0.46666172     0.19000
H408        H  0.73803576  0.06498034  0.53798357     0.14900
C409        C  0.85560310  0.10958732  0.31981163     0.30300
C410        C  0.81275846  0.06398945  0.32743200    -0.36000
C411        C  0.81035000  0.06657838  0.34440587     0.16300
C412        C  0.84762415  0.11132902  0.35312491     0.22100
C413        C  0.89128440  0.15624239  0.34554958    -0.34100
C414        C  0.89388308  0.15354262  0.32859852     0.16200
O415        O  0.86221009  0.11769598  0.30406880    -0.26200
C416        C  0.90578407  0.16702021  0.30261562     0.06000
C417        C  0.92773227  0.19130394  0.31752488    -0.31000
O418        O  0.83578323  0.10732659  0.36865394    -0.22900
C419        C  0.79064993  0.05920839  0.37010571    -0.02900
C420        C  0.77302846  0.03150755  0.35538576    -0.17300
H421        H  0.78227577  0.02979638  0.32053335     0.20700
H422        H  0.92010487  0.19166364  0.35237168     0.19100
H423        H  0.96093233  0.23198659  0.31984629     0.19000
H424        H  0.73722975  0.99251502  0.35304185     0.14900
C425        C  0.93473010  0.23078762  0.15437165     0.30300
C426        C  0.90278284  0.20846143  0.16825259    -0.36000
C427        C  0.92991460  0.22606319  0.18325891     0.16300
C428        C  0.98481902  0.26266821  0.18469147     0.22100
C429        C  0.01669900  0.28515764  0.17081683    -0.34100
C430        C  0.98947266  0.26796624  0.15581639     0.16200
O431        O  0.91851772  0.21862144  0.13904688    -0.26200
C432        C  0.96362940  0.24881944  0.13059314     0.06000
C433        C  0.00866073  0.28029792  0.14046372    -0.31000
O434        O  0.00170404  0.27260637  0.20000283    -0.22900
C435        C  0.95666458  0.24230056  0.20845792    -0.02900
C436        C  0.91109190  0.21259037  0.19861949    -0.17300
H437        H  0.85985068  0.17903680  0.16743553     0.20700
H438        H  0.05984506  0.31376338  0.17162908     0.19100
H439        H  0.05032677  0.30685407  0.13681597     0.19000
H440        H  0.86981854  0.18456980  0.20231228     0.14900
C441        C  0.24579864  0.00527370  0.52010644     0.30300
C442        C  0.26435956  0.03566436  0.50572784    -0.36000
C443        C  0.24647589  0.00624259  0.49114099     0.16300
C444        C  0.21262059  0.95069482  0.49085081     0.22100
C445        C  0.19372598  0.92033482  0.50523228    -0.34100
C446        C  0.21175310  0.94974775  0.51981562     0.16200
O447        O  0.25647437  0.02493695  0.53497396    -0.26200
C448        C  0.22922477  0.98166882  0.54444060     0.06000
C449        C  0.20050494  0.93350504  0.53567321    -0.31000
O450        O  0.20080332  0.93125627  0.47596569    -0.22900
C451        C  0.22723444  0.97466223  0.46647299    -0.02900
C452        C  0.25629600  0.02274283  0.47526367    -0.17300
H453        H  0.29067152  0.07931269  0.50592354     0.20700
H454        H  0.16667817  0.87680040  0.50504039     0.19100
H455        H  0.17389525  0.89304201  0.54025237     0.19000
H456        H  0.28072554  0.06358561  0.47067126     0.14900
C457        C  0.43126027  0.00124975  0.41114139     0.30300
C458        C  0.48639814  0.04153441  0.40985267    -0.36000
C459        C  0.52415648  0.02364591  0.41116604     0.16300
C460        C  0.50819381  0.96967180  0.41340131     0.22100
C461        C  0.45321227  0.92957423  0.41484582    -0.34100
C462        C  0.41555734  0.94747476  0.41366235     0.16200
O463        O  0.38950322  0.00917131  0.41059518    -0.26200
C464        C  0.34635043  0.96000701  0.41284732     0.06000
C465        C  0.36006710  0.91983519  0.41485504    -0.31000
O466        O  0.54962527  0.96138625  0.41399250    -0.22900
C467        C  0.59307707  0.01052892  0.41226021    -0.02900
C468        C  0.57989360  0.05126034  0.41056390    -0.17300
H469        H  0.49891011  0.08386605  0.40804280     0.20700
H470        H  0.44073144  0.88731433  0.41679808     0.19100
H471        H  0.33336233  0.87703238  0.41715634     0.19000
H472        H  0.60706897  0.09435675  0.40891883     0.14900
C473        C  0.02284476  0.99915477  0.42640576     0.30300
C474        C  0.00769538  0.03910663  0.42653487    -0.36000
C475        C  0.95198770  0.02016780  0.42520944     0.16300
C476        C  0.91418248  0.96562572  0.42381159     0.22100
C477        C  0.92929313  0.92566961  0.42384460    -0.34100
C478        C  0.98495746  0.94457486  0.42522523     0.16200
O479        O  0.07277024  0.00814405  0.42638231    -0.26200
C480        C  0.06700328  0.95885427  0.42528833     0.06000
C481        C  0.01320001  0.91743545  0.42463408    -0.31000
O482        O  0.86465227  0.95692524  0.42196592    -0.22900
C483        C  0.87049334  0.00631839  0.42228508    -0.02900
C484        C  0.92399379  0.04753615  0.42431318    -0.17300
H485        H  0.03740447  0.08197984  0.42719429     0.20700
H486        H  0.89976881  0.88294218  0.42248942     0.19100
H487        H  0.99746111  0.87433414  0.42301562     0.19000
H488        H  0.93991287  0.09095358  0.42462995     0.14900
C489        C  0.00555213  0.54395729  0.26498014     0.30300
C490        C  0.03008169  0.51164233  0.26511777    -0.36000
C491        C  0.99451502  0.45502823  0.26495846     0.16300
C492        C  0.93867277  0.43150007  0.26461466     0.22100
C493        C  0.91422908  0.46374710  0.26477011    -0.34100
C494        C  0.94969761  0.52020008  0.26500594     0.16200
O495        O  0.03059097  0.59776961  0.26419819    -0.26200
C496        C  0.98994898  0.60832297  0.26389603     0.06000
C497        C  0.93901102  0.56152159  0.26445671    -0.31000
O498        O  0.91328694  0.37779934  0.26359712    -0.22900
C499        C  0.95348112  0.36670205  0.26342858    -0.02900
C500        C  0.00474355  0.41324914  0.26431835    -0.17300
H501        H  0.07374998  0.52929217  0.26497164     0.20700
H502        H  0.87057099  0.44611632  0.26435923     0.19100
H503        H  0.89950001  0.55835883  0.26392099     0.19000
H504        H  0.04404719  0.41592593  0.26401620     0.14900
C505        C  0.94821572  0.92934667  0.24484515     0.30300
C506        C  0.90847818  0.94495466  0.24435523    -0.36000
C507        C  0.92779138  0.00091749  0.24530879     0.16300
C508        C  0.98249375  0.03834186  0.24651496     0.22100
C509        C  0.02212228  0.02284915  0.24668677    -0.34100
C510        C  0.00287967  0.96709364  0.24584082     0.16200
O511        O  0.93898581  0.87934944  0.24583576    -0.26200
C512        C  0.98821810  0.88504884  0.24738812     0.06000
C513        C  0.02977505  0.93880555  0.24731517    -0.31000
O514        O  0.99182513  0.08796096  0.24846738    -0.22900
C515        C  0.94278498  0.08292924  0.24848368    -0.02900
C516        C  0.90094133  0.02956775  0.24647332    -0.17300
H517        H  0.86551390  0.91541867  0.24400387     0.20700
H518        H  0.06488545  0.05220645  0.24809665     0.19100
H519        H  0.07280909  0.95466778  0.24919813     0.19000
H520        H  0.85758523  0.01408369  0.24654637     0.14900
C521        C  0.08647161  0.86081293  0.32102790     0.30300
C522        C  0.12890300  0.90586921  0.32918014    -0.36000
C523        C  0.13005705  0.90262634  0.34619570     0.16300
C524        C  0.09227744  0.85753082  0.35451537     0.22100
C525        C  0.04915429  0.81289708  0.34639232    -0.34100
C526        C  0.04755144  0.81649707  0.32937693     0.16200
O527        O  0.08004706  0.85427274  0.30516008    -0.26200
C528        C  0.03578735  0.80558673  0.30311769     0.06000
C529        C  0.01346054  0.78016293  0.31784141    -0.31000
O530        O  0.10276908  0.86134224  0.37022849    -0.22900
C531        C  0.14745650  0.90982111  0.37219464    -0.02900
C532        C  0.16610311  0.93769835  0.35760432    -0.17300
H533        H  0.15965803  0.94059286  0.32264362     0.18300
H534        H  0.01956471  0.77731177  0.35288471     0.19100
H535        H  0.97927159  0.73982054  0.31974333     0.19000
H536        H  0.20188307  0.97689210  0.35561634     0.14900
C537        C  0.98309683  0.71843370  0.15426776     0.30300
C538        C  0.01882303  0.73941919  0.16759080    -0.36000
C539        C  0.99488827  0.72661358  0.18306979     0.16300
C540        C  0.93958633  0.69542915  0.18542795     0.22100
C541        C  0.90391220  0.67392060  0.17209896    -0.34100
C542        C  0.92784661  0.68663711  0.15661423     0.16200
O543        O  0.99626408  0.72762189  0.13870211    -0.26200
C544        C  0.94870111  0.70104696  0.13095444     0.06000
C545        C  0.90497267  0.67474453  0.14154227    -0.31000
O546        O  0.92601068  0.69060732  0.20099086    -0.22900
C547        C  0.97344769  0.71884876  0.20871955    -0.02900
C548        C  0.01743824  0.74190818  0.19811156    -0.17300
H549        H  0.06221372  0.76496026  0.16601218     0.20700
H550        H  0.86037428  0.64987297  0.17366444     0.19100
H551        H  0.86213944  0.65178940  0.13855112     0.19000
H552        H  0.06004454  0.76755114  0.20107351     0.14900
loop_ 
_geom_bond_atom_site_label_1 
_geom_bond_atom_site_label_2 
_geom_bond_distance 
_geom_bond_site_symmetry_2 
_ccdc_geom_bond_type 
O1            V9   1.935       .  S
O1           C11   1.273   1_455  A
O2            V9   1.926       .  S
O2           C12   1.271   1_455  A
O3            V9   1.887       .  S
O3           C13   1.258       .  A
O4            V9   1.885       .  S
O4           C14   1.259   1_455  A
O5           V10   1.938       .  S
O5           C14   1.274       .  A
O6           V10   1.943       .  S
O6           C13   1.275   1_655  A
O7           V10   1.871       .  S
O7           C12   1.255       .  A
O8           V10   1.874       .  S
O8           C11   1.257       .  A
V9           V10   2.086   1_455  T
C11         C496   1.479       .  S
C12         C512   1.465       .  S
C13         C528   1.488       .  S
C14         C547   1.487       .  S
O15          V23   1.933       .  S
O15          C25   1.274       .  A
O16          V23   1.925       .  S
O16          C26   1.271       .  A
O17          V23   1.883       .  S
O17          C27   1.258       .  A
O18          V23   1.878       .  S
O18          C28   1.256       .  A
O19          V24   1.938   1_545  S
O19          C28   1.275   1_545  A
O20          V24   1.944       .  S
O20          C27   1.276       .  A
O21          V24   1.865       .  S
O21          C26   1.254       .  A
O22          V24   1.876       .  S
O22          C25   1.256       .  A
V23          V24   2.086       .  T
C25         C464   1.475       .  S
C26         C480   1.461       .  S
C27         C531   1.488       .  S
C28         C451   1.480       .  S
O29          V37   1.934       .  S
O29          C39   1.274       .  A
O30          V37   1.930       .  S
O30          C40   1.271       .  A
O31          V37   1.876       .  S
O31          C41   1.256       .  A
O32          V37   1.874       .  S
O32          C42   1.257       .  A
O33          V38   1.935       .  S
O33          C42   1.273       .  A
O34          V38   1.937       .  S
O34          C41   1.274       .  A
O35          V38   1.865       .  S
O35          C40   1.255       .  A
O36          V38   1.878       .  S
O36          C39   1.257       .  A
V37          V38   2.086       .  T
C39         C499   1.480       .  S
C40         C515   1.465       .  S
C41         C416   1.476       .  S
C42         C435   1.479       .  S
O43          V51   1.931       .  S
O43          C53   1.272       .  A
O44          V51   1.924       .  S
O44          C54   1.271       .  A
O45          V51   1.878       .  S
O45          C55   1.257       .  A
O46          V51   1.878       .  S
O46          C56   1.257   1_545  A
O47          V52   1.930       .  S
O47          C56   1.272       .  A
O48          V52   1.936       .  S
O48          C55   1.273   1_565  A
O49          V52   1.868       .  S
O49          C54   1.255   1_565  A
O50          V52   1.876       .  S
O50          C53   1.257   1_565  A
V51          V52   2.087   1_545  T
C53         C467   1.474       .  S
C54         C483   1.462       .  S
C55         C419   1.479       .  S
C56         C400   1.474       .  S
O57          V65   1.936       .  S
O57          C67   1.274       .  A
O58          V65   1.928       .  S
O58          C68   1.272       .  A
O59          V65   1.882       .  S
O59          C69   1.257       .  A
O60          V65   1.878       .  S
O60          C70   1.257   1_545  A
O61          V66   1.931       .  S
O61          C70   1.273       .  A
O62          V66   1.930       .  S
O62          C69   1.272   1_565  A
O63          V66   1.873       .  S
O63          C68   1.255   1_565  A
O64          V66   1.880       .  S
O64          C67   1.258   1_565  A
V65          V66   2.087   1_545  T
C67         C368   1.484       .  S
C68         C352   1.468   1_545  S
C69         C384   1.473       .  S
C70         C448   1.475       .  S
O71          V79   1.929       .  S
O71          C81   1.272       .  A
O72          V79   1.932       .  S
O72          C82   1.272       .  A
O73          V79   1.873       .  S
O73          C83   1.256       .  A
O74          V79   1.876       .  S
O74          C84   1.257       .  A
O75          V80   1.930       .  S
O75          C84   1.272       .  A
O76          V80   1.935       .  S
O76          C83   1.273       .  A
O77          V80   1.870       .  S
O77          C82   1.256       .  A
O78          V80   1.873       .  S
O78          C81   1.256       .  A
V79          V80   2.087       .  T
C81         C336   1.469       .  S
C82         C323   1.474       .  S
C83         C387   1.474       .  S
C84         C307   1.472       .  S
O85          V93   1.939       .  S
O85          C95   1.274       .  A
O86          V93   1.933       .  S
O86          C96   1.273       .  A
O87          V93   1.879       .  S
O87          C97   1.256       .  A
O88          V93   1.877       .  S
O88          C98   1.257       .  A
O89          V94   1.930   1_545  S
O89          C98   1.272   1_545  A
O90          V94   1.935       .  S
O90          C97   1.274       .  A
O91          V94   1.868       .  S
O91          C96   1.255       .  A
O92          V94   1.879       .  S
O92          C95   1.257       .  A
V93          V94   2.086       .  T
C95         C371   1.483       .  S
C96         C355   1.468       .  S
C97         C291   1.478       .  S
C98         C403   1.474       .  S
O99         V107   1.928       .  S
O99         C109   1.272       .  A
O100        V107   1.925       .  S
O100        C110   1.271       .  A
O101        V107   1.877       .  S
O101        C111   1.256       .  A
O102        V107   1.879       .  S
O102        C112   1.258       .  A
O103        V108   1.935       .  S
O103        C112   1.273       .  A
O104        V108   1.935       .  S
O104        C111   1.273       .  A
O105        V108   1.875       .  S
O105        C110   1.257       .  A
O106        V108   1.875       .  S
O106        C109   1.256       .  A
V107        V108   2.087       .  T
C109        C339   1.470       .  S
C110        C320   1.471       .  S
C111        C288   1.475       .  S
C112        C275   1.482       .  S
O113        V121   1.930       .  S
O113        C123   1.272       .  A
O114        V121   1.924       .  S
O114        C124   1.271       .  A
O115        V121   1.881       .  S
O115        C125   1.258       .  A
O116        V121   1.880       .  S
O116        C126   1.258       .  A
O117        V122   1.932       .  S
O117        C126   1.273       .  A
O118        V122   1.942       .  S
O118        C125   1.275       .  A
O119        V122   1.876       .  S
O119        C124   1.256       .  A
O120        V122   1.879       .  S
O120        C123   1.258       .  A
V121        V122   2.086       .  T
C123        C224   1.475       .  S
C124        C240   1.467       .  S
C125        C259   1.484       .  S
C126        C272   1.480       .  S
O127        V135   1.936       .  S
O127        C137   1.274       .  A
O128        V135   1.930       .  S
O128        C138   1.271       .  A
O129        V135   1.890       .  S
O129        C139   1.259       .  A
O130        V135   1.889       .  S
O130        C140   1.260       .  A
O131        V136   1.931       .  S
O131        C140   1.272       .  A
O132        V136   1.933       .  S
O132        C139   1.273       .  A
O133        V136   1.871       .  S
O133        C138   1.256       .  A
O134        V136   1.879       .  S
O134        C137   1.258       .  A
V135        V136   2.086       .  T
C137        C195   1.483       .  S
C138        C208   1.469       .  S
C139        C256   1.482       .  S
C140        C544   1.484       .  S
O141        V149   1.933       .  S
O141        C151   1.274       .  A
O142        V149   1.931       .  S
O142        C152   1.272       .  A
O143        V149   1.879       .  S
O143        C153   1.257       .  A
O144        V149   1.872       .  S
O144        C154   1.255       .  A
O145        V150   1.935       .  S
O145        C154   1.274       .  A
O146        V150   1.941       .  S
O146        C153   1.275       .  A
O147        V150   1.868       .  S
O147        C152   1.255       .  A
O148        V150   1.876       .  S
O148        C151   1.256       .  A
V149        V150   2.086       .  T
C151        C227   1.476       .  S
C152        C243   1.468       .  S
C153        C179   1.484       .  S
C154        C304   1.473       .  S
O155        V163   1.940       .  S
O155        C165   1.275   1_455  A
O156        V163   1.933       .  S
O156        C166   1.274   1_455  A
O157        V163   1.882       .  S
O157        C167   1.256       .  A
O158        V163   1.874       .  S
O158        C168   1.257   1_455  A
O159        V164   1.937       .  S
O159        C168   1.274       .  A
O160        V164   1.940       .  S
O160        C167   1.275   1_655  A
O161        V164   1.868       .  S
O161        C166   1.254       .  A
O162        V164   1.874       .  S
O162        C165   1.256       .  A
V163        V164   2.085   1_455  T
C165        C192   1.483       .  S
C166        C211   1.469       .  S
C167        C176   1.482       .  S
C168        C432   1.480       .  S
C169        C174   1.378       .  A
C169        C170   1.414       .  A
C169        O175   1.321       .  A
C170        C171   1.410   1_554  A
C170        H181   1.082       .  S
C171        C180   1.379       .  A
C171        C172   1.378       .  A
C172        C173   1.408       .  A
C172        O178   1.316       .  A
C173        C174   1.404   1_556  A
C173        H182   1.082       .  S
C174        C177   1.372       .  A
O175        C176   1.337       .  A
C176        C177   1.391       .  A
C177        H183   1.082   1_455  S
O178        C179   1.333       .  A
C179        C180   1.396       .  A
C180        H184   1.082       .  S
C185        C190   1.381       .  A
C185        C186   1.405   1_655  A
C185        O191   1.329   1_655  A
C186        C187   1.408   1_455  A
C186        H197   1.082       .  S
C187        C196   1.358       .  A
C187        C188   1.380       .  A
C188        C189   1.405       .  A
C188        O194   1.328       .  A
C189        C190   1.408       .  A
C189        H198   1.082       .  S
C190        C193   1.357       .  A
O191        C192   1.332   1_455  A
C192        C193   1.396       .  A
C193        H199   1.083       .  S
O194        C195   1.333       .  A
C195        C196   1.395       .  A
C196        H200   1.083   1_655  S
C201        C206   1.380       .  A
C201        C202   1.404   1_655  A
C201        O207   1.311       .  A
C202        C203   1.399   1_465  A
C202        H213   1.082   1_565  S
C203        C212   1.369   1_655  A
C203        C204   1.379       .  A
C204        C205   1.408   1_545  A
C204        O210   1.314       .  A
C205        C206   1.403       .  A
C205        H214   1.082       .  S
C206        C209   1.372       .  A
O207        C208   1.330       .  A
C208        C209   1.392       .  A
C209        H215   1.082       .  S
O210        C211   1.333       .  A
C211        C212   1.389   1_655  A
C212        H216   1.082       .  S
C217        C222   1.379       .  A
C217        C218   1.406       .  A
C217        O223   1.314       .  A
C218        C219   1.402       .  A
C218        H229   1.082       .  S
C219        C228   1.371       .  A
C219        C220   1.379       .  A
C220        C221   1.409       .  A
C220        O226   1.317       .  A
C221        C222   1.405       .  A
C221        H230   1.082       .  S
C222        C225   1.373       .  A
O223        C224   1.332       .  A
C224        C225   1.393       .  A
C225        H231   1.082       .  S
O226        C227   1.334       .  A
C227        C228   1.391       .  A
C228        H232   1.082       .  S
C233        C238   1.380       .  A
C233        C234   1.407   1_565  A
C233        O239   1.315       .  A
C234        C235   1.403       .  A
C234        H245   1.082       .  S
C235        C244   1.372   1_655  A
C235        C236   1.380   1_655  A
C236        C237   1.402   1_545  A
C236        O242   1.311       .  A
C237        C238   1.398   1_455  A
C237        H246   1.082       .  S
C238        C241   1.366       .  A
O239        C240   1.333       .  A
C240        C241   1.388       .  A
C241        H247   1.082       .  S
O242        C243   1.330       .  A
C243        C244   1.391       .  A
C244        H248   1.082   1_455  S
C249        C254   1.379       .  A
C249        C250   1.412       .  A
C249        O255   1.320       .  A
C250        C251   1.408   1_554  A
C250        H261   1.082       .  S
C251        C260   1.377       .  A
C251        C252   1.378       .  A
C252        C253   1.409       .  A
C252        O258   1.317       .  A
C253        C254   1.405   1_556  A
C253        H262   1.082       .  S
C254        C257   1.373       .  A
O255        C256   1.335       .  A
C256        C257   1.393       .  A
C257        H263   1.082       .  S
O258        C259   1.334       .  A
C259        C260   1.395       .  A
C260        H264   1.082       .  S
C265        C270   1.381       .  A
C265        C266   1.403       .  A
C265        O271   1.326       .  A
C266        C267   1.406       .  A
C266        H277   1.083       .  S
C267        C276   1.357       .  A
C267        C268   1.380       .  A
C268        C269   1.405       .  A
C268        O274   1.328       .  A
C269        C270   1.408       .  A
C269        H278   1.082       .  S
C270        C273   1.359       .  A
O271        C272   1.331       .  A
C272        C273   1.395       .  A
C273        H279   1.083       .  S
O274        C275   1.333       .  A
C275        C276   1.394       .  A
C276        H280   1.083       .  S
C281        C286   1.379       .  A
C281        C282   1.407       .  A
C281        O287   1.315       .  A
C282        C283   1.403       .  A
C282        H293   1.082       .  S
C283        C292   1.372       .  A
C283        C284   1.379       .  A
C284        C285   1.410       .  A
C284        O290   1.317       .  A
C285        C286   1.406       .  A
C285        H294   1.082       .  S
C286        C289   1.375       .  A
O287        C288   1.332       .  A
C288        C289   1.393       .  A
C289        H295   1.082       .  S
O290        C291   1.335       .  A
C291        C292   1.391       .  A
C292        H296   1.082       .  S
C297        C302   1.379       .  A
C297        C298   1.407       .  A
C297        O303   1.314       .  A
C298        C299   1.403       .  A
C298        H309   1.082       .  S
C299        C308   1.371       .  A
C299        C300   1.379       .  A
C300        C301   1.406       .  A
C300        O306   1.314       .  A
C301        C302   1.401       .  A
C301        H310   1.082       .  S
C302        C305   1.371       .  A
O303        C304   1.333       .  A
C304        C305   1.391       .  A
C305        H311   1.082       .  S
O306        C307   1.332       .  A
C307        C308   1.392       .  A
C308        H312   1.082       .  S
C313        C318   1.381       .  A
C313        C314   1.400   1_565  A
C313        O319   1.323       .  A
C314        C315   1.403       .  A
C314        H325   1.082       .  S
C315        C324   1.352   1_655  A
C315        C316   1.381   1_655  A
C316        C317   1.404   1_445  A
C316        O322   1.326       .  A
C317        C318   1.407       .  A
C317        H326   1.082       .  S
C318        C321   1.356       .  A
O319        C320   1.329       .  A
C320        C321   1.394       .  A
C321        H327   1.083       .  S
O322        C323   1.332       .  A
C323        C324   1.392       .  A
C324        H328   1.083       .  S
C329        C334   1.379       .  A
C329        C330   1.405       .  A
C329        O335   1.314       .  A
C330        C331   1.401       .  A
C330        H341   1.082       .  S
C331        C340   1.369       .  A
C331        C332   1.380       .  A
C332        C333   1.406       .  A
C332        O338   1.314       .  A
C333        C334   1.401       .  A
C333        H342   1.082       .  S
C334        C337   1.370       .  A
O335        C336   1.332       .  A
C336        C337   1.390       .  A
C337        H343   1.082       .  S
O338        C339   1.332       .  A
C339        C340   1.390       .  A
C340        H344   1.082       .  S
C345        C350   1.379   1_665  A
C345        C346   1.407       .  A
C345        O351   1.314   1_655  A
C346        C347   1.402       .  A
C346        H357   1.082       .  S
C347        C356   1.372       .  A
C347        C348   1.379       .  A
C348        C349   1.404   1_565  A
C348        O354   1.311       .  A
C349        C350   1.399   1_655  A
C349        H358   1.082       .  S
C350        C353   1.368       .  A
O351        C352   1.332       .  A
C352        C353   1.389   1_565  A
C353        H359   1.082       .  S
O354        C355   1.331       .  A
C355        C356   1.391       .  A
C356        H360   1.082       .  S
C361        C366   1.380   1_545  A
C361        C362   1.406       .  A
C361        O367   1.328       .  A
C362        C363   1.409       .  A
C362        H373   1.082       .  S
C363        C372   1.359       .  A
C363        C364   1.380   1_545  A
C364        C365   1.406       .  A
C364        O370   1.329       .  A
C365        C366   1.409       .  A
C365        H374   1.082       .  S
C366        C369   1.359       .  A
O367        C368   1.333       .  A
C368        C369   1.396   1_545  A
C369        H375   1.083       .  S
O370        C371   1.333       .  A
C371        C372   1.396   1_565  A
C372        H376   1.083       .  S
C377        C382   1.379       .  A
C377        C378   1.411       .  A
C377        O383   1.319       .  A
C378        C379   1.407       .  A
C378        H389   1.082       .  S
C379        C388   1.375       .  A
C379        C380   1.379       .  A
C380        C381   1.404       .  A
C380        O386   1.313       .  A
C381        C382   1.400       .  A
C381        H390   1.082       .  S
C382        C385   1.368       .  A
O383        C384   1.335       .  A
C384        C385   1.389       .  A
C385        H391   1.082       .  S
O386        C387   1.331       .  A
C387        C388   1.394       .  A
C388        H392   1.082       .  S
C393        C398   1.379   1_545  A
C393        C394   1.407       .  A
C393        O399   1.315       .  A
C394        C395   1.403       .  A
C394        H405   1.082       .  S
C395        C404   1.371       .  A
C395        C396   1.379   1_545  A
C396        C397   1.407       .  A
C396        O402   1.315       .  A
C397        C398   1.403       .  A
C397        H406   1.082       .  S
C398        C401   1.371       .  A
O399        C400   1.333   1_545  A
C400        C401   1.392       .  A
C401        H407   1.082       .  S
O402        C403   1.333       .  A
C403        C404   1.392   1_565  A
C404        H408   1.082       .  S
C409        C414   1.379       .  A
C409        C410   1.410       .  A
C409        O415   1.316       .  A
C410        C411   1.405       .  A
C410        H421   1.082       .  S
C411        C420   1.375       .  A
C411        C412   1.379       .  A
C412        C413   1.408       .  A
C412        O418   1.316       .  A
C413        C414   1.404       .  A
C413        H422   1.082       .  S
C414        C417   1.374       .  A
O415        C416   1.334       .  A
C416        C417   1.392       .  A
C417        H423   1.082       .  S
O418        C419   1.333       .  A
C419        C420   1.393       .  A
C420        H424   1.082   1_545  S
C425        C430   1.381       .  A
C425        C426   1.404       .  A
C425        O431   1.328       .  A
C426        C427   1.407       .  A
C426        H437   1.082       .  S
C427        C436   1.356       .  A
C427        C428   1.381       .  A
C428        C429   1.403   1_655  A
C428        O434   1.327   1_655  A
C429        C430   1.407   1_455  A
C429        H438   1.082       .  S
C430        C433   1.356   1_655  A
O431        C432   1.332       .  A
C432        C433   1.395   1_655  A
C433        H439   1.083       .  S
O434        C435   1.331   1_455  A
C435        C436   1.395       .  A
C436        H440   1.083       .  S
C441        C446   1.379   1_545  A
C441        C442   1.408       .  A
C441        O447   1.316       .  A
C442        C443   1.404       .  A
C442        H453   1.082       .  S
C443        C452   1.373       .  A
C443        C444   1.379   1_545  A
C444        C445   1.408       .  A
C444        O450   1.317       .  A
C445        C446   1.404       .  A
C445        H454   1.082       .  S
C446        C449   1.372       .  A
O447        C448   1.333   1_545  A
C448        C449   1.392       .  A
C449        H455   1.082       .  S
O450        C451   1.334       .  A
C451        C452   1.393   1_565  A
C452        H456   1.082       .  S
C457        C462   1.379   1_545  A
C457        C458   1.409       .  A
C457        O463   1.316       .  A
C458        C459   1.405       .  A
C458        H469   1.082       .  S
C459        C468   1.374       .  A
C459        C460   1.379   1_545  A
C460        C461   1.406       .  A
C460        O466   1.314       .  A
C461        C462   1.401       .  A
C461        H470   1.082       .  S
C462        C465   1.370       .  A
O463        C464   1.334   1_545  A
C464        C465   1.391       .  A
C465        H471   1.082       .  S
O466        C467   1.332   1_565  A
C467        C468   1.393       .  A
C468        H472   1.082       .  S
C473        C478   1.380   1_455  A
C473        C474   1.404   1_565  A
C473        O479   1.311   1_565  A
C474        C475   1.399   1_455  A
C474        H485   1.082       .  S
C475        C484   1.367       .  A
C475        C476   1.380   1_545  A
C476        C477   1.403       .  A
C476        O482   1.311       .  A
C477        C478   1.398       .  A
C477        H486   1.082       .  S
C478        C481   1.366   1_655  A
O479        C480   1.331   1_545  A
C480        C481   1.388       .  A
C481        H487   1.082   1_455  S
O482        C483   1.330   1_565  A
C483        C484   1.389       .  A
C484        H488   1.082       .  S
C489        C494   1.381   1_455  A
C489        C490   1.406       .  A
C489        O495   1.328       .  A
C490        C491   1.409   1_455  A
C490        H501   1.082       .  S
C491        C500   1.359   1_655  A
C491        C492   1.381       .  A
C492        C493   1.402       .  A
C492        O498   1.325       .  A
C493        C494   1.405       .  A
C493        H502   1.082       .  S
C494        C497   1.355       .  A
O495        C496   1.333   1_455  A
C496        C497   1.394       .  A
C497        H503   1.083       .  S
O498        C499   1.330       .  A
C499        C500   1.396   1_655  A
C500        H504   1.083       .  S
C505        C510   1.380   1_655  A
C505        C506   1.407       .  A
C505        O511   1.314       .  A
C506        C507   1.402   1_565  A
C506        H517   1.082       .  S
C507        C516   1.372       .  A
C507        C508   1.380       .  A
C508        C509   1.402   1_655  A
C508        O514   1.309       .  A
C509        C510   1.397   1_545  A
C509        H518   1.082       .  S
C510        C513   1.366       .  A
O511        C512   1.333       .  A
C512        C513   1.388   1_655  A
C513        H519   1.082       .  S
O514        C515   1.329       .  A
C515        C516   1.392       .  A
C516        H520   1.082       .  S
C521        C526   1.378       .  A
C521        C522   1.412       .  A
C521        O527   1.320       .  A
C522        C523   1.407       .  A
C522        H533   1.082       .  S
C523        C532   1.377       .  A
C523        C524   1.378       .  A
C524        C525   1.413       .  A
C524        O530   1.320       .  A
C525        C526   1.409       .  A
C525        H534   1.082       .  S
C526        C529   1.378       .  A
O527        C528   1.335       .  A
C528        C529   1.396       .  A
C529        H535   1.082   1_455  S
O530        C531   1.336       .  A
C531        C532   1.394       .  A
C532        H536   1.082       .  S
C537        C542   1.380       .  A
C537        C538   1.406   1_655  A
C537        O543   1.327       .  A
C538        C539   1.409   1_455  A
C538        H549   1.082       .  S
C539        C548   1.361   1_655  A
C539        C540   1.380       .  A
C540        C541   1.407       .  A
C540        O546   1.329       .  A
C541        C542   1.409       .  A
C541        H550   1.082       .  S
C542        C545   1.362       .  A
O543        C544   1.333       .  A
C544        C545   1.395       .  A
C545        H551   1.083       .  S
O546        C547   1.333       .  A
C547        C548   1.396   1_655  A
C548        H552   1.083       .  S
