geometry optimzed in LAMMPS
_audit_creation_date              2020-12-01 
_audit_creation_method            'lammps2cif' 
_symmetry_space_group_name_H-M    'P1' 
_symmetry_Int_Tables_number       1 
_symmetry_cell_setting            triclinic 
loop_ 
_symmetry_equiv_pos_as_xyz 
  x,y,z 
_cell_length_a                    42.72864747 
_cell_length_b                    42.501891803216104 
_cell_length_c                    42.765178251742654 
_cell_angle_alpha                 89.60003691513758 
_cell_angle_beta                  89.9800554037941 
_cell_angle_gamma                 89.91368095018773 
loop_ 
_atom_site_label 
_atom_site_type_symbol 
_atom_site_fract_x 
_atom_site_fract_y 
_atom_site_fract_z 
_atom_site_charge 
C1          C  0.09941191  0.70091557  0.94742034     0.80700
N2          N  0.08811601  0.71205997  0.91997501    -0.77600
C3          C  0.05916621  0.70415684  0.91009263     0.83100
N4          N  0.04068349  0.68527909  0.92827257    -0.77600
C5          C  0.05135519  0.67422943  0.95638750     0.83200
N6          N  0.08123090  0.68145881  0.96545297    -0.79300
C7          C  0.85155533  0.69853164  0.94548728     0.80700
N8          N  0.86243036  0.70871234  0.91752901    -0.77600
C9          C  0.89061260  0.69911287  0.90681472     0.83100
N10         N  0.90866776  0.67945354  0.92459606    -0.77600
C11         C  0.89846416  0.66971739  0.95331412     0.83200
N12         N  0.86945869  0.67869975  0.96331195    -0.79300
C13         C  0.88767727  0.69218790  0.15723574     0.80700
N14         N  0.90707987  0.67455842  0.13882049    -0.77600
C15         C  0.90025158  0.67024295  0.10780168     0.83100
N16         N  0.87311591  0.68260591  0.09598067    -0.77600
C17         C  0.85383489  0.70005095  0.11457097     0.83200
N18         N  0.86142041  0.70474938  0.14475124    -0.79300
C19         C  0.05146156  0.71033019  0.14594873     0.80700
N20         N  0.03471856  0.68868610  0.12956655    -0.77600
C21         C  0.04589530  0.67748748  0.10193168     0.83100
N22         N  0.07470105  0.68673191  0.09179398    -0.77600
C23         C  0.09138616  0.70830095  0.10826440     0.83200
N24         N  0.07961039  0.72001385  0.13514183    -0.79300
C25         C  0.89140212  0.43182370  0.14919945     0.80700
N26         N  0.86273497  0.42411995  0.13839704    -0.77600
C27         C  0.85238975  0.43550689  0.11069148     0.83100
N28         N  0.87122518  0.45461449  0.09312918    -0.77600
C29         C  0.90065754  0.46190321  0.10326221     0.83200
N30         N  0.91036018  0.45097376  0.13178756    -0.79300
C31         C  0.85377316  0.43460364  0.95496696     0.80700
N32         N  0.87212872  0.45481211  0.97134469    -0.77600
C33         C  0.90244007  0.45968927  0.96246568     0.83100
N34         N  0.91374647  0.44497654  0.93646448    -0.77600
C35         C  0.89478693  0.42525777  0.92001766     0.83200
N36         N  0.86521049  0.42027150  0.92946191    -0.79300
C37         C  0.09709061  0.43778580  0.94184915     0.80700
N38         N  0.07925923  0.45569831  0.96131433    -0.77600
C39         C  0.05029645  0.46571823  0.95210052     0.83100
N40         N  0.03998070  0.45862841  0.92261281    -0.77600
C41         C  0.05797743  0.44054231  0.90322680     0.83200
N42         N  0.08613134  0.43016082  0.91335678    -0.79300
C43         C  0.06373944  0.43985415  0.15566720     0.80700
N44         N  0.09238260  0.43111963  0.14549092    -0.77600
C45         C  0.10339484  0.44120149  0.11752015     0.83100
N46         N  0.08490077  0.45954921  0.09874215    -0.77600
C47         C  0.05538471  0.46762127  0.10810230     0.83200
N48         N  0.04519416  0.45827243  0.13701139    -0.79300
O49         O  0.04016163  0.62144548  0.96884681    -0.74800
O50         O  0.01064504  0.65915444  0.99307504    -0.53700
C51         C  0.03275303  0.65029180  0.97410803     0.78900
O52         O  0.91336874  0.51278534  0.97210037    -0.59400
O53         O  0.94325648  0.47568769  0.99730943    -0.52500
C54         C  0.92111434  0.48412591  0.97834071     0.70900
O55         O  0.91202541  0.61746503  0.96610790    -0.74000
O56         O  0.93700395  0.65698816  0.99226861    -0.54600
C57         C  0.91713705  0.64672319  0.97183606     0.76900
O58         O  0.03805649  0.51768275  0.96545511    -0.59100
O59         O  0.01434834  0.47858271  0.99392173    -0.52200
C60         C  0.03287131  0.48854681  0.97184381     0.73500
Zr61       Zr  0.02254354  0.56917039  0.98497328     2.54700
O62         O  0.02174245  0.57179177  0.92809089    -0.79700
O63         O  0.07926456  0.56687676  0.99046622    -0.93100
Zr64       Zr  0.93059541  0.56606257  0.98447848     2.64700
O65         O  0.93752027  0.56275508  0.92807389    -0.98100
O66         O  0.87363988  0.56531984  0.98303645    -0.80100
O67         O  0.97541614  0.59901825  0.98344754    -0.83500
O68         O  0.97757751  0.53641634  0.98507662    -2.18200
O69         O  0.04136266  0.51939368  0.09464444    -0.66900
O70         O  0.01637539  0.47960917  0.06884574    -0.51400
C71         C  0.03640623  0.49010541  0.08911768     0.71900
O72         O  0.91488494  0.61838688  0.09621210    -0.59800
O73         O  0.93683285  0.65740225  0.06625601    -0.51800
C74         C  0.91883362  0.64748811  0.08882630     0.73700
O75         O  0.91202525  0.51459993  0.09116474    -0.71200
O76         O  0.94199194  0.47687821  0.06754406    -0.49900
C77         C  0.91958882  0.48578048  0.08606098     0.75100
O78         O  0.03652539  0.62397160  0.09200720    -0.66500
O79         O  0.00801113  0.66068107  0.06468654    -0.53700
C80         C  0.02886936  0.65253882  0.08513014     0.73500
Zr81       Zr  0.02193632  0.57050853  0.07685824     2.77500
O82         O  0.01693247  0.57241805  0.13356847    -0.97300
O83         O  0.07885540  0.57228346  0.07520267    -0.78100
Zr84       Zr  0.93026493  0.56700959  0.07645451     2.70100
O85         O  0.93346323  0.56304433  0.13318530    -0.79300
O86         O  0.87344141  0.57028609  0.07341637    -0.98400
Zr87       Zr  0.97375257  0.63122870  0.02917637     2.21500
Zr88       Zr  0.97883006  0.50501115  0.03193604     2.11100
O89         O  0.97729933  0.53724871  0.07777467    -2.47100
O90         O  0.97487227  0.60010684  0.07607856    -0.79100
O91         O  0.02396760  0.53840426  0.03155486    -0.71300
O92         O  0.92854110  0.59781592  0.02990871    -2.32300
O93         O  0.02127269  0.60106185  0.03025453    -2.28500
O94         O  0.93142861  0.53532570  0.03106247    -0.73100
H95         H  0.97770037  0.52313825  0.96675352     0.78900
H96         H  0.90976767  0.61020891  0.02977030     0.80000
H97         H  0.97755421  0.52435188  0.09633759     0.82200
H98         H  0.03925245  0.61480637  0.03022759     0.79800
H99         H  0.86708304  0.57776111  0.00139996     0.42900
H100        H  0.86710750  0.55157955  0.06130086     0.41800
H101        H  0.94847089  0.57964601  0.13924888     0.41500
H102        H  0.00996560  0.55110359  0.13991041     0.39500
H103        H  0.08540253  0.57050872  0.09735408     0.42600
H104        H  0.08328440  0.54760645  0.00299084     0.37400
H105        H  0.04354504  0.56714333  0.92174026     0.43500
H106        H  0.91651817  0.56726997  0.91934046     0.39900
H107        H  0.03871752  0.57387704  0.14129899     0.44800
H108        H  0.08451229  0.58435646  0.00470845     0.43500
H109        H  0.95017827  0.58146264  0.92248431     0.43700
H110        H  0.86618134  0.56584653  0.09498946     0.44000
C111        C  0.61844392  0.98897745  0.13819446     0.80700
N112        N  0.62681655  0.95986992  0.12911392    -0.77600
C113        C  0.61442600  0.94709070  0.10315321     0.83100
N114        N  0.59304741  0.96374830  0.08595604    -0.77600
C115        C  0.58523901  0.99370562  0.09437411     0.83200
N116        N  0.59751204  0.00594827  0.12101575    -0.79300
C117        C  0.61053751  0.98219281  0.90907004     0.80700
N118        N  0.61702932  0.95250912  0.91821134    -0.77600
C119        C  0.60525198  0.94073372  0.94510264     0.83100
N120        N  0.58708239  0.95933002  0.96369608    -0.77600
C121        C  0.58138486  0.98991773  0.95522257     0.83200
N122        N  0.59265273  0.00100581  0.92747965    -0.79300
C123        C  0.60724011  0.19215462  0.93978174     0.80700
N124        N  0.61603220  0.18265356  0.91109138    -0.77600
C125        C  0.60583308  0.15520064  0.89923966     0.83100
N126        N  0.58641580  0.13647610  0.91681614    -0.77600
C127        C  0.57809124  0.14516861  0.94649551     0.83200
N128        N  0.58819933  0.17347225  0.95762143    -0.79300
C129        C  0.60845591  0.18847340  0.11013341     0.80700
N130        N  0.59078440  0.17001820  0.09106947    -0.77600
C131        C  0.57800498  0.14275865  0.10236281     0.83100
N132        N  0.58222116  0.13490275  0.13322938    -0.77600
C133        C  0.60002777  0.15357506  0.15208364     0.83200
N134        N  0.61297982  0.17998307  0.14015983    -0.79300
C135        C  0.34162184  0.18886511  0.94692664     0.80700
N136        N  0.36308263  0.17144201  0.96316434    -0.77600
C137        C  0.36893381  0.14102123  0.95477049     0.83100
N138        N  0.35406874  0.12875040  0.92944058    -0.77600
C139        C  0.33284222  0.14646289  0.91333577     0.83200
N140        N  0.32663706  0.17612177  0.92234168    -0.79300
C141        C  0.34782195  0.97934714  0.89886555     0.80700
N142        N  0.33734171  0.95209658  0.91147551    -0.77600
C143        C  0.34560581  0.94294829  0.94058198     0.83100
N144        N  0.36446638  0.96184297  0.95810835    -0.77600
C145        C  0.37463878  0.99012660  0.94653224     0.83200
N146        N  0.36678971  0.99849271  0.91637526    -0.79300
C147        C  0.35041923  0.98185750  0.15437449     0.80700
N148        N  0.33960805  0.95446537  0.14285998    -0.77600
C149        C  0.34722270  0.94481373  0.11392819     0.83100
N150        N  0.36561469  0.96333922  0.09534882    -0.77600
C151        C  0.37629901  0.99161365  0.10600078     0.83200
N152        N  0.36905356  0.00062178  0.13596124    -0.79300
C153        C  0.34550015  0.19201665  0.10436188     0.80700
N154        N  0.36539990  0.17419777  0.08670696    -0.77600
C155        C  0.37035625  0.14318408  0.09427991     0.83100
N156        N  0.35598744  0.13070517  0.11996511    -0.77600
C157        C  0.33687844  0.14892762  0.13779722     0.83200
N158        N  0.33176575  0.17919652  0.12980708    -0.79300
O159        O  0.53205220  0.00319684  0.08360330    -0.74800
O160        O  0.56857340  0.03379528  0.05863567    -0.53700
C161        C  0.56047869  0.01125231  0.07745724     0.78900
O162        O  0.42666982  0.00452394  0.95856532    -0.59400
O163        O  0.38788580  0.02754301  0.98743057    -0.52500
C164        C  0.39763435  0.00906239  0.96523007     0.70900
O165        O  0.52958950  0.00110918  0.96752597    -0.74000
O166        O  0.56722394  0.03216877  0.98960695    -0.54600
C167        C  0.55816802  0.00888781  0.97237651     0.76900
O168        O  0.42797829  0.00540710  0.09251018    -0.59100
O169        O  0.38852717  0.02838104  0.06416595    -0.52200
C170        C  0.39883146  0.01007643  0.08641672     0.73500
Zr171      Zr  0.47885965  0.02095176  0.07129092     2.54700
O172        O  0.47735183  0.96371783  0.07074322    -0.79700
O173        O  0.48422899  0.02485194  0.12784311    -0.93100
Zr174      Zr  0.47752109  0.02052376  0.97927222     2.64700
O175        O  0.47516423  0.96325582  0.98087257    -0.98100
O176        O  0.48260873  0.02510304  0.92271381    -0.80100
O177        O  0.50911796  0.02215842  0.02483981    -0.83500
O178        O  0.44700413  0.01851179  0.02568928    -2.18200
O179        O  0.42301347  0.13194777  0.08334769    -0.66900
O180        O  0.38579248  0.10156553  0.05962144    -0.51400
C181        C  0.39442201  0.12438509  0.07769884     0.71900
O182        O  0.52603961  0.13072578  0.95865351    -0.59800
O183        O  0.56520714  0.10673827  0.98652917    -0.51800
C184        C  0.55516115  0.12607848  0.96507103     0.73700
O185        O  0.42196726  0.13040495  0.96466449    -0.71200
O186        O  0.38524998  0.10021787  0.98993159    -0.49900
C187        C  0.39351745  0.12260064  0.97094374     0.75100
O188        O  0.52640685  0.12952040  0.08950424    -0.66500
O189        O  0.56538848  0.10634184  0.06096987    -0.53700
C190        C  0.55539742  0.12487530  0.08290024     0.73500
Zr191      Zr  0.47540402  0.11325972  0.07000880     2.77500
O192        O  0.47792289  0.17047762  0.06754264    -0.97300
O193        O  0.47213694  0.10922780  0.12674396    -0.78100
Zr194      Zr  0.47490110  0.11286328  0.97785729     2.70100
O195        O  0.47597663  0.17013201  0.97876939    -0.79300
O196        O  0.47092987  0.10831468  0.92125580    -0.98400
Zr197      Zr  0.53932342  0.06970695  0.02386058     2.21500
Zr198      Zr  0.41392311  0.06415110  0.02521125     2.11100
O199        O  0.44432353  0.11175145  0.02418178    -2.47100
O200        O  0.50622186  0.11516779  0.02370407    -0.79100
O201        O  0.44585913  0.06595523  0.07129897    -0.71300
O202        O  0.50750804  0.06763089  0.97769560    -2.32300
O203        O  0.50828417  0.06823055  0.07065151    -2.28500
O204        O  0.44500843  0.06566219  0.97860998    -0.73100
H205        H  0.43469268  0.99965878  0.02605231     0.78900
H206        H  0.52045930  0.06763485  0.95924268     0.80000
H207        H  0.43082763  0.12991337  0.02403253     0.82200
H208        H  0.52149787  0.06844901  0.08897171     0.79800
H209        H  0.48947873  0.00398939  0.91584979     0.42900
H210        H  0.49023000  0.09714738  0.91488142     0.41800
H211        H  0.46061468  0.17603093  0.99504544     0.41500
H212        H  0.45924221  0.17693649  0.05539576     0.39500
H213        H  0.46573949  0.13048398  0.13362565     0.42600
H214        H  0.48197504  0.00295216  0.13556621     0.37400
H215        H  0.48708553  0.95792046  0.05058828     0.43500
H216        H  0.48005237  0.95668208  0.95924299     0.39900
H217        H  0.47344664  0.17738050  0.08915618     0.44800
H218        H  0.46493935  0.03563088  0.13488304     0.43500
H219        H  0.49365448  0.95664909  0.99323333     0.43700
H220        H  0.45397488  0.09284690  0.91789277     0.44000
C221        C  0.09761087  0.97980894  0.65381189     0.80700
N222        N  0.08651118  0.95133272  0.66230710    -0.77600
C223        C  0.05808728  0.94154665  0.65271086     0.83100
N224        N  0.03972874  0.96100246  0.63496348    -0.77600
C225        C  0.05021354  0.99028143  0.62675488     0.83200
N226        N  0.07961743  0.99922850  0.63559173    -0.79300
C227        C  0.85293436  0.98487342  0.66130792     0.80700
N228        N  0.87157680  0.00202773  0.64163491    -0.77600
C229        C  0.89894906  0.98943219  0.63077663     0.83100
N230        N  0.90666485  0.95929396  0.63889927    -0.77600
C231        C  0.88787862  0.94253313  0.65869343     0.83200
N232        N  0.86138136  0.95551731  0.66975683    -0.79300
C233        C  0.89025397  0.17975316  0.66569214     0.80700
N234        N  0.85991308  0.17247848  0.67070663    -0.77600
C235        C  0.84678603  0.14711062  0.65719943     0.83100
N236        N  0.86425694  0.12902059  0.63752660    -0.77600
C237        C  0.89517409  0.13564937  0.63265940     0.83200
N238        N  0.90807756  0.16130262  0.64669013    -0.79300
C239        C  0.05017039  0.19479740  0.65735016     0.80700
N240        N  0.03219229  0.17751435  0.63725862    -0.77600
C241        C  0.03959224  0.14670466  0.63136392     0.83100
N242        N  0.06574650  0.13400230  0.64471133    -0.77600
C243        C  0.08396825  0.15166566  0.66393503     0.83200
N244        N  0.07599288  0.18166302  0.67011959    -0.79300
C245        C  0.88752489  0.19342351  0.40081847     0.80700
N246        N  0.85853753  0.18574483  0.39112141    -0.77600
C247        C  0.84579972  0.15765585  0.39861960     0.83100
N248        N  0.86262734  0.13661364  0.41628620    -0.77600
C249        C  0.89256869  0.14358347  0.42531712     0.83200
N250        N  0.90476636  0.17231276  0.41771118    -0.79300
C251        C  0.86231420  0.98469661  0.38404971     0.80700
N252        N  0.88045278  0.00200764  0.40365148    -0.77600
C253        C  0.90286527  0.98764399  0.42147015     0.83100
N254        N  0.90676310  0.95566177  0.41954016    -0.77600
C255        C  0.88877508  0.93850576  0.39942744     0.83200
N256        N  0.86658616  0.95334776  0.38229895    -0.79300
C257        C  0.09158579  0.98426881  0.39043274     0.80700
N258        N  0.07788139  0.95811330  0.37911724    -0.77600
C259        C  0.04854040  0.95008053  0.38758419     0.83100
N260        N  0.03228011  0.96867716  0.40787616    -0.77600
C261        C  0.04534611  0.99578848  0.41885609     0.83200
N262        N  0.07542611  0.00295410  0.41072179    -0.79300
C263        C  0.05628821  0.19929117  0.40396592     0.80700
N264        N  0.07909821  0.18513582  0.38746454    -0.77600
C265        C  0.08293082  0.15375631  0.38802834     0.83100
N266        N  0.06347361  0.13553723  0.40582684    -0.77600
C267        C  0.04045098  0.14929841  0.42326848     0.83200
N268        N  0.03704758  0.18140044  0.42240698    -0.79300
O269        O  0.91397857  0.99846954  0.57848003    -0.74800
O270        O  0.93672798  0.02872021  0.61630533    -0.53700
C271        C  0.91798129  0.00665396  0.60717529     0.78900
O272        O  0.03819559  0.01035764  0.47152293    -0.59400
O273        O  0.00624339  0.03323279  0.43482598    -0.52500
C274        C  0.02889409  0.01459321  0.44311602     0.70900
O275        O  0.03949150  0.00684694  0.57542798    -0.74000
O276        O  0.01003264  0.02852040  0.61451129    -0.54600
C277        C  0.03197769  0.01001859  0.60435825     0.76900
O278        O  0.91714498  0.99675195  0.47390494    -0.59100
O279        O  0.93580510  0.03076203  0.43651780    -0.52200
C280        C  0.92004892  0.00617318  0.44533278     0.73500
Zr281      Zr  0.93115999  0.01526682  0.52619701     2.54700
O282        O  0.94338959  0.95926826  0.52726172    -0.79700
O283        O  0.87460563  0.00866325  0.52386880    -0.93100
Zr284      Zr  0.02259256  0.02632410  0.52431214     2.64700
O285        O  0.02992159  0.96955268  0.52123936    -0.98100
O286        O  0.07813555  0.03902742  0.52425349    -0.80100
O287        O  0.97753978  0.01963531  0.55642369    -0.83500
O288        O  0.97616773  0.02159105  0.49446426    -2.18200
O289        O  0.90185907  0.12538118  0.47642108    -0.66900
O290        O  0.93244301  0.10492517  0.43756294    -0.51400
C291        C  0.90987006  0.12276423  0.44755902     0.71900
O292        O  0.02522073  0.13747106  0.57892116    -0.59800
O293        O  0.00625475  0.10371753  0.61630080    -0.51800
C294        C  0.02210561  0.12827421  0.60752868     0.73700
O295        O  0.02582534  0.13827069  0.47511068    -0.71200
O296        O  0.00567329  0.10663226  0.43696668    -0.49900
C297        C  0.02249146  0.13017446  0.44636437     0.75100
O298        O  0.90409378  0.12249464  0.58016908    -0.66500
O299        O  0.93607832  0.10017435  0.61715047    -0.53700
C300        C  0.91302782  0.11813736  0.60862711     0.73500
Zr301      Zr  0.91997598  0.10701439  0.52756847     2.77500
O302        O  0.91084681  0.16355739  0.52980343    -0.97300
O303        O  0.86491512  0.09220186  0.52765620    -0.78100
Zr304      Zr  0.01170210  0.11812585  0.52680035     2.70100
O305        O  0.00460102  0.17498327  0.52743056    -0.79300
O306        O  0.06867648  0.11914502  0.52735267    -0.98400
Zr307      Zr  0.97254718  0.06529289  0.58874037     2.21500
Zr308      Zr  0.97028861  0.06860771  0.46362903     2.11100
O309        O  0.96544740  0.11397509  0.49635726    -2.47100
O310        O  0.96622410  0.11212484  0.55795872    -0.79100
O311        O  0.92462301  0.06186127  0.49558942    -0.71300
O312        O  0.01831351  0.07133351  0.55678220    -2.32300
O313        O  0.92586450  0.06063900  0.55789970    -2.28500
O314        O  0.01702887  0.07320970  0.49426828    -0.73100
H315        H  0.97786387  0.00333945  0.48121728     0.78900
H316        H  0.03684017  0.07296579  0.56964581     0.80000
H317        H  0.96334290  0.13282615  0.48379010     0.82200
H318        H  0.90763302  0.05872204  0.57113399     0.79800
H319        H  0.08857494  0.01949783  0.53153893     0.42900
H320        H  0.07498497  0.10875358  0.50767535     0.41800
H321        H  0.98774753  0.17921550  0.51208111     0.41500
H322        H  0.92370421  0.17259077  0.51270221     0.39500
H323        H  0.85983959  0.08770890  0.54983069     0.42600
H324        H  0.86640271  0.02053391  0.54195534     0.37400
H325        H  0.95127019  0.95511335  0.54866826     0.43500
H326        H  0.05200857  0.96595165  0.52730663     0.39900
H327        H  0.88893631  0.16644518  0.52279495     0.44800
H328        H  0.87109135  0.98628239  0.52940182     0.43500
H329        H  0.01751545  0.96073542  0.53878110     0.43700
H330        H  0.07409796  0.14157343  0.52410657     0.44000
C331        C  0.94668497  0.39176279  0.26053286    -0.10400
C332        C  0.97477581  0.40469561  0.25044540    -0.04300
C333        C  0.00329767  0.39664069  0.26390909    -0.10400
C334        C  0.00381892  0.37667621  0.29047770     0.10600
C335        C  0.97515740  0.36374908  0.30165288    -0.02200
C336        C  0.94650863  0.37069181  0.28607747     0.10400
C337        C  0.91877874  0.35609699  0.29606320    -0.12200
C338        C  0.91910517  0.33455121  0.32077821    -0.12200
C339        C  0.94704812  0.32749093  0.33658523     0.10400
C340        C  0.97531419  0.34255011  0.32735063    -0.02200
C341        C  0.03186307  0.36909322  0.30590687    -0.12300
C342        C  0.03191188  0.34870906  0.33171296    -0.12300
C343        C  0.00403086  0.33473155  0.34236853     0.10600
C344        C  0.00392989  0.31235578  0.36708949    -0.10400
C345        C  0.97543789  0.29991166  0.37720157    -0.04300
C346        C  0.94771132  0.30534327  0.36121214    -0.10400
H347        H  0.89670921  0.36108406  0.28460196     0.07800
H348        H  0.89728815  0.32355508  0.32765184     0.07800
H349        H  0.05388129  0.37900111  0.29809602     0.08000
H350        H  0.05397898  0.34355007  0.34311202     0.08000
H351        H  0.97468836  0.41940331  0.22953098     0.04500
H352        H  0.97541861  0.28157822  0.39503394     0.04500
C353        C  0.28690681  0.09340054  0.24721892    -0.10400
C354        C  0.30607461  0.06710307  0.24559468    -0.04300
C355        C  0.29769843  0.03856042  0.25934717    -0.10400
C356        C  0.27268000  0.03804234  0.28122674     0.10600
C357        C  0.25531697  0.06619733  0.28657108    -0.02200
C358        C  0.26142683  0.09359735  0.26826381     0.10400
C359        C  0.24195156  0.12005354  0.27140287    -0.12200
C360        C  0.21740548  0.12015775  0.29308455    -0.12200
C361        C  0.21186659  0.09392717  0.31246301     0.10400
C362        C  0.23077670  0.06648987  0.30897551    -0.02200
C363        C  0.26470378  0.01063950  0.29794937    -0.12300
C364        C  0.24102360  0.01112243  0.32063407    -0.12300
C365        C  0.22418339  0.03886830  0.32684060     0.10600
C366        C  0.20060725  0.03994510  0.35019136    -0.10400
C367        C  0.18445393  0.06799269  0.35489084    -0.04300
C368        C  0.18775208  0.09381875  0.33513733    -0.10400
H369        H  0.24595220  0.14098918  0.25739191     0.07800
H370        H  0.20310664  0.14110803  0.29502819     0.07800
H371        H  0.27740934  0.98893070  0.29414788     0.08000
H372        H  0.23621331  0.98972782  0.33365915     0.08000
H373        H  0.32502979  0.06752363  0.22862238     0.04500
H374        H  0.16544203  0.06844881  0.37176476     0.04500
C375        C  0.20584598  0.39187270  0.99843405    -0.10400
C376        C  0.19563819  0.40370076  0.02687319    -0.04300
C377        C  0.20864080  0.39454163  0.05525603    -0.10400
C378        C  0.23408565  0.37326750  0.05555940     0.10600
C379        C  0.24578500  0.36168805  0.02662442    -0.02200
C380        C  0.23118997  0.37046883  0.99788804     0.10400
C381        C  0.24209262  0.35742875  0.96981450    -0.12200
C382        C  0.26685714  0.33589593  0.96984869    -0.12200
C383        C  0.28185163  0.32731439  0.99787346     0.10400
C384        C  0.27135224  0.34040020  0.02652757    -0.02200
C385        C  0.24780076  0.36298975  0.08368902    -0.12300
C386        C  0.27268189  0.34162008  0.08355750    -0.12300
C387        C  0.28492714  0.33037275  0.05528883     0.10600
C388        C  0.31023310  0.30893544  0.05487540    -0.10400
C389        C  0.32259856  0.29968047  0.02627549    -0.04300
C390        C  0.30697058  0.30564198  0.99830980    -0.10400
H391        H  0.23143183  0.36377816  0.94768319     0.07800
H392        H  0.27457275  0.32626785  0.94776010     0.07800
H393        H  0.23931200  0.37146113  0.10596053     0.08000
H394        H  0.28270909  0.33428191  0.10570124     0.08000
H395        H  0.17524270  0.41903370  0.02708331     0.04500
H396        H  0.34098427  0.28198554  0.02635938     0.04500
C397        C  0.65276555  0.04166723  0.25364766    -0.10400
C398        C  0.63377684  0.06801840  0.25020323    -0.04300
C399        C  0.64205573  0.09707281  0.26254972    -0.10400
C400        C  0.66683372  0.09854142  0.28442746     0.10600
C401        C  0.68496551  0.07107822  0.29050227    -0.02200
C402        C  0.67871440  0.04281789  0.27404632     0.10400
C403        C  0.69861543  0.01677515  0.27815123    -0.12200
C404        C  0.72401706  0.01815110  0.29863995    -0.12200
C405        C  0.73019069  0.04559455  0.31564072     0.10400
C406        C  0.71061709  0.07245319  0.31143960    -0.02200
C407        C  0.67425616  0.12664348  0.29982921    -0.12300
C408        C  0.69903393  0.12781999  0.32113306    -0.12300
C409        C  0.71741646  0.10103932  0.32723652     0.10600
C410        C  0.74272268  0.10179872  0.34848473    -0.10400
C411        C  0.76078786  0.07484762  0.35301041    -0.04300
C412        C  0.75572712  0.04741731  0.33644044    -0.10400
H413        H  0.69440318  0.99507137  0.26572930     0.07800
H414        H  0.73871307  0.99752207  0.30128162     0.07800
H415        H  0.66061085  0.14775872  0.29566523     0.08000
H416        H  0.70377590  0.14983031  0.33281000     0.08000
H417        H  0.61536752  0.06719001  0.23271181     0.04500
H418        H  0.78098804  0.07587742  0.36842342     0.04500
C419        C  0.94326463  0.73302956  0.26781485    -0.10400
C420        C  0.97208581  0.72407624  0.25546802    -0.04300
C421        C  0.99978814  0.73925838  0.26306711    -0.10400
C422        C  0.99957947  0.76238817  0.28666839     0.10600
C423        C  0.97092051  0.76983533  0.30197182    -0.02200
C424        C  0.94243096  0.75564688  0.29204192     0.10400
C425        C  0.91423178  0.76455993  0.30641962    -0.12200
C426        C  0.91386578  0.78706447  0.33017599    -0.12200
C427        C  0.94164353  0.80156074  0.34014810     0.10400
C428        C  0.97052353  0.79280530  0.32596952    -0.02200
C429        C  0.02699656  0.77844047  0.29505353    -0.12300
C430        C  0.02657714  0.80112751  0.31854310    -0.12300
C431        C  0.99874511  0.80839978  0.33443339     0.10600
C432        C  0.99811869  0.83113891  0.35843534    -0.10400
C433        C  0.97007539  0.83727928  0.37367861    -0.04300
C434        C  0.94159406  0.82492549  0.36369457    -0.10400
H435        H  0.89231626  0.75391683  0.29948622     0.07800
H436        H  0.89168112  0.79303825  0.34086981     0.07800
H437        H  0.04902660  0.77324245  0.28365661     0.08000
H438        H  0.04829627  0.81271740  0.32453939     0.08000
H439        H  0.97244493  0.70780648  0.23597551     0.04500
H440        H  0.96978448  0.85621317  0.39060077     0.04500
C441        C  0.29496707  0.03585947  0.79427129    -0.10400
C442        C  0.30038297  0.06343103  0.81074350    -0.04300
C443        C  0.28362270  0.09089153  0.80533300    -0.10400
C444        C  0.26125720  0.09192703  0.78100624     0.10600
C445        C  0.25643947  0.06461278  0.76243615    -0.02200
C446        C  0.27283886  0.03615753  0.76947406     0.10400
C447        C  0.26645661  0.00916307  0.75177899    -0.12200
C448        C  0.24437273  0.00992897  0.72753710    -0.12200
C449        C  0.22834326  0.03784992  0.71984900     0.10400
C450        C  0.23443927  0.06550291  0.73749172    -0.02200
C451        C  0.24359365  0.11915765  0.77483864    -0.12300
C452        C  0.22181714  0.11993258  0.75044390    -0.12300
C453        C  0.21723543  0.09358229  0.73133313     0.10600
C454        C  0.19571694  0.09423696  0.70624419    -0.10400
C455        C  0.19223319  0.06784355  0.68761692    -0.04300
C456        C  0.20613263  0.03907499  0.69512250    -0.10400
H457        H  0.27869258  0.98732420  0.75654913     0.07800
H458        H  0.24025272  0.98864294  0.71439415     0.07800
H459        H  0.24669426  0.14009226  0.78878685     0.08000
H460        H  0.20885181  0.14147321  0.74628337     0.08000
H461        H  0.31660670  0.06289210  0.83033511     0.04500
H462        H  0.17412667  0.06855735  0.66979687     0.04500
C463        C  0.99794660  0.38959811  0.79949400    -0.10400
C464        C  0.97026194  0.39349935  0.81609722    -0.04300
C465        C  0.94367625  0.37586804  0.81037012    -0.10400
C466        C  0.94315367  0.35506753  0.78482111     0.10600
C467        C  0.97034509  0.35238562  0.76566098    -0.02200
C468        C  0.99833803  0.36876550  0.77365016     0.10400
C469        C  0.02540330  0.36383078  0.75562182    -0.12200
C470        C  0.02498703  0.34360688  0.72982642    -0.12200
C471        C  0.99730642  0.32828732  0.72078941     0.10400
C472        C  0.96979191  0.33252866  0.73909727    -0.02200
C473        C  0.91668313  0.33681310  0.77807432    -0.12300
C474        C  0.91637813  0.31691331  0.75220139    -0.12300
C475        C  0.94235520  0.31509693  0.73213074     0.10600
C476        C  0.94190475  0.29601396  0.70530262    -0.10400
C477        C  0.96729801  0.29637867  0.68491355    -0.04300
C478        C  0.99624719  0.30845344  0.69410875    -0.10400
H479        H  0.04696751  0.37588000  0.76123106     0.07800
H480        H  0.04625547  0.34062604  0.71637700     0.07800
H481        H  0.89596051  0.33814588  0.79260071     0.08000
H482        H  0.89537537  0.30352947  0.74745743     0.08000
H483        H  0.97010957  0.40888892  0.83631581     0.04500
H484        H  0.96639873  0.28036921  0.66526491     0.04500
C485        C  0.21543317  0.73277210  0.00040027    -0.10400
C486        C  0.20501394  0.72124765  0.02920096    -0.04300
C487        C  0.21006190  0.73755310  0.05689661    -0.10400
C488        C  0.23172555  0.76278004  0.05704573     0.10600
C489        C  0.24627681  0.77225282  0.02855137    -0.02200
C490        C  0.23716570  0.75807528  0.99989796     0.10400
C491        C  0.24958576  0.76985096  0.97169307    -0.12200
C492        C  0.27155408  0.79433776  0.97158220    -0.12200
C493        C  0.28158787  0.80805126  0.99965918     0.10400
C494        C  0.26831936  0.79734321  0.02846061    -0.02200
C495        C  0.23906453  0.77878935  0.08473021    -0.12300
C496        C  0.26116347  0.80306499  0.08478719    -0.12300
C497        C  0.27618106  0.81251187  0.05704268     0.10600
C498        C  0.29885922  0.83678790  0.05668475    -0.10400
C499        C  0.31298171  0.84521972  0.02856091    -0.04300
C500        C  0.30433546  0.83240043  0.00007212    -0.10400
H501        H  0.24279640  0.75964521  0.94957788     0.07800
H502        H  0.28100403  0.80225571  0.94938819     0.07800
H503        H  0.22821317  0.77206125  0.10666540     0.08000
H504        H  0.26661704  0.81431101  0.10675795     0.08000
H505        H  0.18711216  0.70314341  0.02925168     0.04500
H506        H  0.32920852  0.86490113  0.02849520     0.04500
C507        C  0.73429503  0.40566485  0.00242075    -0.10400
C508        C  0.74011824  0.41992567  0.03118808    -0.04300
C509        C  0.73437623  0.40398226  0.05914349    -0.10400
C510        C  0.71439101  0.37747086  0.05884991     0.10600
C511        C  0.70332931  0.36572942  0.02978046    -0.02200
C512        C  0.71440177  0.37901990  0.00135531     0.10400
C513        C  0.70602928  0.36493021  0.97285646    -0.12200
C514        C  0.68599239  0.33883496  0.97215965    -0.12200
C515        C  0.67409718  0.32579124  0.99998323     0.10400
C516        C  0.68340351  0.33905650  0.02915324    -0.02200
C517        C  0.70565317  0.36221892  0.08670724    -0.12300
C518        C  0.68542970  0.33643187  0.08621219    -0.12300
C519        C  0.67392723  0.32478680  0.05777867     0.10600
C520        C  0.65346447  0.29889020  0.05690355    -0.10400
C521        C  0.64257077  0.28794930  0.02841346    -0.04300
C522        C  0.65328849  0.29973209  0.00002429    -0.10400
H523        H  0.71451123  0.37451449  0.95090817     0.24300
H524        H  0.67965722  0.32902543  0.94973651     0.07800
H525        H  0.71389578  0.37070810  0.10906120     0.08000
H526        H  0.67866883  0.32571679  0.10824554     0.08000
H527        H  0.75662640  0.43930453  0.03186599     0.04500
H528        H  0.62744896  0.26737371  0.02839295     0.04500
C529        C  0.94579965  0.73889699  0.79517744    -0.10400
C530        C  0.97464482  0.72855000  0.80635693    -0.04300
C531        C  0.00236831  0.74338135  0.79786811    -0.10400
C532        C  0.00218646  0.76553029  0.77310594     0.10600
C533        C  0.97310936  0.77422350  0.75924794    -0.02200
C534        C  0.94464476  0.76181858  0.77124170     0.10400
C535        C  0.91598120  0.77296223  0.75946098    -0.12200
C536        C  0.91519075  0.79572491  0.73578669    -0.12200
C537        C  0.94303870  0.80778747  0.72309431     0.10400
C538        C  0.97232998  0.79690161  0.73485830    -0.02200
C539        C  0.02993966  0.77921161  0.76197137    -0.12300
C540        C  0.02928360  0.80079657  0.73717400    -0.12300
C541        C  0.00076804  0.81004529  0.72351088     0.10600
C542        C  0.99957607  0.83254571  0.69908671    -0.10400
C543        C  0.97081507  0.84113581  0.68648639    -0.04300
C544        C  0.94266171  0.83087045  0.69917892    -0.10400
H545        H  0.89401640  0.76391669  0.76838750     0.07800
H546        H  0.89265900  0.80363089  0.72717243     0.07800
H547        H  0.05233228  0.77278513  0.77203286     0.08000
H548        H  0.05123581  0.81037471  0.72880346     0.08000
H549        H  0.97508188  0.71210145  0.82595369     0.04500
H550        H  0.97026983  0.85979696  0.66898151     0.04500
C551        C  0.65635939  0.04117612  0.80099345    -0.10400
C552        C  0.64302923  0.06977331  0.80901014    -0.04300
C553        C  0.64820170  0.09732485  0.79216695    -0.10400
C554        C  0.66895817  0.09662482  0.76625701     0.10600
C555        C  0.68233750  0.06729770  0.75710436    -0.02200
C556        C  0.67631207  0.03945426  0.77483376     0.10400
C557        C  0.69049524  0.01102151  0.76611358    -0.12200
C558        C  0.71042010  0.00977363  0.74030634    -0.12200
C559        C  0.71634062  0.03680572  0.72220410     0.10400
C560        C  0.70237401  0.06589122  0.73067208    -0.02200
C561        C  0.67708800  0.12403285  0.74960443    -0.12300
C562        C  0.69778648  0.12274526  0.72421678    -0.12300
C563        C  0.71031137  0.09391037  0.71413603     0.10600
C564        C  0.73117058  0.09226553  0.68831207    -0.10400
C565        C  0.74089020  0.06270535  0.67798170    -0.04300
C566        C  0.73639964  0.03569257  0.69604886    -0.10400
H567        H  0.68626916  0.98957914  0.77926043     0.07800
H568        H  0.72086406  0.98739051  0.73424129     0.07800
H569        H  0.66751474  0.14663392  0.75621194     0.08000
H570        H  0.70350798  0.14440061  0.71201497     0.08000
H571        H  0.62887213  0.07076761  0.83011528     0.04500
H572        H  0.75820594  0.06150321  0.65945490     0.04500
C573        C  0.73841690  0.73293644  0.00259503    -0.10400
C574        C  0.74959343  0.72317451  0.03165637    -0.04300
C575        C  0.74102462  0.73798007  0.05923016    -0.10400
C576        C  0.71699711  0.76071972  0.05882493     0.10600
C577        C  0.70346152  0.76965671  0.02972506    -0.02200
C578        C  0.71516671  0.75681609  0.00131066     0.10400
C579        C  0.70375668  0.76858556  0.97269130    -0.12200
C580        C  0.68094610  0.79224123  0.97190364    -0.12200
C581        C  0.66825411  0.80422994  0.99969614     0.10400
C582        C  0.67949919  0.79278721  0.02894097    -0.02200
C583        C  0.70638157  0.77480444  0.08647987    -0.12300
C584        C  0.68200961  0.79674062  0.08580977    -0.12300
C585        C  0.66813645  0.80587220  0.05737039     0.10600
C586        C  0.64362637  0.82833675  0.05631413    -0.10400
C587        C  0.63149599  0.83724330  0.02743800    -0.04300
C588        C  0.64468930  0.82760014  0.99936625    -0.10400
H589        H  0.71237201  0.75943889  0.95073833     0.07800
H590        H  0.67274816  0.80068170  0.94939484     0.07800
H591        H  0.71643659  0.76833119  0.10886819     0.08000
H592        H  0.67395489  0.80647784  0.10772451     0.08000
H593        H  0.76911811  0.70678358  0.03253987     0.04500
H594        H  0.61466982  0.85640705  0.02667083     0.04500
C595        C  0.03353334  0.28593944  0.40948336    -0.11800
C596        C  0.03146508  0.29353036  0.37733639     0.05200
C597        C  0.04483525  0.27257726  0.35566395    -0.07100
C598        C  0.05423626  0.24276122  0.36565041    -0.07800
C599        C  0.05054204  0.23297571  0.39692209    -0.02400
C600        C  0.04169565  0.25539558  0.41931256     0.04400
N601        N  0.03930075  0.24724099  0.45166518     0.66900
H602        H  0.02381504  0.30199382  0.42652726     0.15800
H603        H  0.06202578  0.22624725  0.34806775     0.15500
N604        N  0.04484422  0.27919030  0.32282586     0.74600
O605        O  0.06221621  0.25237783  0.46950161    -0.38800
O606        O  0.01266313  0.24220024  0.46340797    -0.38800
O607        O  0.07028308  0.28610776  0.30948399    -0.39500
O608        O  0.02172583  0.27112550  0.30641150    -0.39500
C609        C  0.13917483  0.15421662  0.37458757    -0.11800
C610        C  0.10944302  0.14092185  0.37018942     0.05200
C611        C  0.10544389  0.11785783  0.34724327    -0.07100
C612        C  0.13164300  0.10642611  0.33110297    -0.07800
C613        C  0.16209946  0.11718078  0.33815049    -0.02400
C614        C  0.16545031  0.14239959  0.35900947     0.04400
N615        N  0.19567893  0.15414890  0.36695614     0.66900
H616        H  0.14228097  0.17289512  0.39143644     0.15800
H617        H  0.12866041  0.08670682  0.31544386     0.15500
N618        N  0.07509100  0.10544395  0.34070070     0.74600
O619        O  0.20566086  0.17862937  0.35343019    -0.38800
O620        O  0.20851593  0.14502742  0.39199699    -0.38800
O621        O  0.05537249  0.12210201  0.32610963    -0.39500
O622        O  0.06634742  0.08031034  0.35390204    -0.39500
C623        C  0.14508816  0.00296209  0.40407646    -0.11800
C624        C  0.12446209  0.99098475  0.38168450     0.05200
C625        C  0.13592157  0.98499582  0.35123288    -0.07100
C626        C  0.16575125  0.99544760  0.34260043    -0.07800
C627        C  0.18439300  0.01210871  0.36369945    -0.02400
C628        C  0.17532457  0.01249458  0.39556617     0.04400
N629        N  0.19504872  0.02625065  0.41871822     0.66900
H630        H  0.13741852  0.00585919  0.42804498     0.15800
H631        H  0.17228181  0.99461880  0.31811692     0.15500
N632        N  0.11645722  0.97152837  0.32773349     0.74600
O633        O  0.19003636  0.05413295  0.42737417    -0.38800
O634        O  0.21151529  0.00841454  0.43575612    -0.38800
O635        O  0.10160292  0.98938825  0.30927966    -0.39500
O636        O  0.11981783  0.94286676  0.32098903    -0.39500
C637        C  0.03905898  0.89451749  0.40142781    -0.11800
C638        C  0.03765784  0.91848915  0.37886648     0.05200
C639        C  0.03150695  0.91053149  0.34750363    -0.07100
C640        C  0.02351615  0.87953015  0.33989431    -0.07800
C641        C  0.02203071  0.85600681  0.36304138    -0.02400
C642        C  0.03201048  0.86336646  0.39365510     0.04400
N643        N  0.03327786  0.83968816  0.41749815     0.66900
H644        H  0.04589751  0.89997643  0.42518774     0.15800
H645        H  0.01546077  0.87454785  0.31640945     0.15500
N646        N  0.03134309  0.93399321  0.32343723     0.74600
O647        O  0.05861171  0.82502646  0.42190960    -0.38800
O648        O  0.01257643  0.83915040  0.43854458    -0.38800
O649        O  0.05342487  0.93467001  0.30386378    -0.39500
O650        O  0.00615452  0.94821873  0.31716840    -0.39500
C651        C  0.80515545  0.98972177  0.37978898    -0.11800
C652        C  0.83475685  0.99811633  0.36835384     0.05200
C653        C  0.83699978  0.01695847  0.34128955    -0.07100
C654        C  0.80971177  0.02931058  0.32775218    -0.07800
C655        C  0.78016136  0.02319750  0.34095415    -0.02400
C656        C  0.77794499  0.00223678  0.36645153     0.04400
N657        N  0.74844269  0.99571467  0.38075782     0.66900
H658        H  0.80322221  0.97435306  0.40003803     0.15800
H659        H  0.81175973  0.04591249  0.30850178     0.15500
N660        N  0.86668574  0.02424063  0.32770951     0.74600
O661        O  0.74002040  0.01123084  0.40436588    -0.38800
O662        O  0.73428573  0.97061473  0.37409200    -0.38800
O663        O  0.87687178  0.00759119  0.30560048    -0.39500
O664        O  0.87895889  0.05070369  0.33276265    -0.39500
C665        C  0.89126260  0.89502305  0.36132133    -0.11800
C666        C  0.89465749  0.90472190  0.39253580     0.05200
C667        C  0.90353267  0.88209245  0.41511505    -0.07100
C668        C  0.91170634  0.85154521  0.40557097    -0.07800
C669        C  0.91401081  0.84402346  0.37352338    -0.02400
C670        C  0.90098301  0.86523992  0.35161469     0.04400
N671        N  0.90194982  0.85901150  0.31883042     0.66900
H672        H  0.88353429  0.91161467  0.34356616     0.15800
H673        H  0.92139420  0.83544985  0.42281279     0.15500
N674        N  0.90626907  0.89005246  0.44738591     0.74600
O675        O  0.87781095  0.84847283  0.30555580    -0.38800
O676        O  0.92346433  0.87095550  0.30239714    -0.38800
O677        O  0.88575029  0.88044476  0.46639167    -0.39500
O678        O  0.93238098  0.89910776  0.45772663    -0.39500
C679        C  0.91015622  0.27951862  0.39703120    -0.11800
C680        C  0.92340666  0.28128908  0.36701974     0.05200
C681        C  0.92274802  0.25445084  0.34779911    -0.07100
C682        C  0.91138293  0.22595229  0.35961774    -0.07800
C683        C  0.90037147  0.22367727  0.39032745    -0.02400
C684        C  0.89839136  0.25099548  0.40868559     0.04400
N685        N  0.88503106  0.25005590  0.43928754     0.66900
H686        H  0.91105650  0.29979066  0.41224213     0.15800
H687        H  0.91176393  0.20527336  0.34491462     0.15500
N688        N  0.93627515  0.25501252  0.31726285     0.74600
O689        O  0.90282294  0.24968766  0.46282808    -0.38800
O690        O  0.85654858  0.25710729  0.44273838    -0.38800
O691        O  0.96285950  0.24280108  0.31311596    -0.39500
O692        O  0.91891166  0.26023323  0.29393995    -0.39500
C693        C  0.79128730  0.13794388  0.40689498    -0.11800
C694        C  0.81400061  0.15060295  0.38676074     0.05200
C695        C  0.80550059  0.15763238  0.35541645    -0.07100
C696        C  0.77664400  0.14745617  0.34378254    -0.07800
C697        C  0.75611802  0.13035720  0.36284733    -0.02400
C698        C  0.76177324  0.12937753  0.39533686     0.04400
N699        N  0.73933109  0.11516565  0.41577138     0.66900
H700        H  0.79661148  0.13426693  0.43141956     0.15800
H701        H  0.77248221  0.14871557  0.31879302     0.15500
N702        N  0.82721551  0.17163380  0.33404917     0.74600
O703        O  0.74390491  0.08770795  0.42622097    -0.38800
O704        O  0.71290963  0.12796621  0.41930113    -0.38800
O705        O  0.84415646  0.15410593  0.31738593    -0.39500
O706        O  0.82384679  0.20016506  0.32638643    -0.39500
C707        C  0.03411246  0.24973432  0.64301780    -0.11800
C708        C  0.04240374  0.22767307  0.66605014     0.05200
C709        C  0.04529558  0.23795502  0.69736226    -0.07100
C710        C  0.03592180  0.26839727  0.70552828    -0.07800
C711        C  0.02328559  0.28906502  0.68315487    -0.02400
C712        C  0.02570054  0.28059926  0.65121368     0.04400
N713        N  0.01726543  0.30241078  0.62707167     0.66900
H714        H  0.03391652  0.24295253  0.61863963     0.15800
H715        H  0.03447199  0.27415421  0.73014296     0.15500
N716        N  0.05434779  0.21675595  0.72184145     0.74600
O717        O  0.03788438  0.32084930  0.61648606    -0.38800
O718        O  0.99273374  0.29786500  0.61132900    -0.38800
O719        O  0.08037441  0.22042766  0.73526060    -0.39500
O720        O  0.03394801  0.19933766  0.73439214    -0.39500
C721        C  0.14170194  0.14843713  0.66326509    -0.11800
C722        C  0.11332101  0.13961262  0.67712447     0.05200
C723        C  0.11351925  0.12195743  0.70496006    -0.07100
C724        C  0.14200137  0.11132091  0.71736707    -0.07800
C725        C  0.17044780  0.11773202  0.70199956    -0.02400
C726        C  0.17019260  0.13733168  0.67522535     0.04400
N727        N  0.19838228  0.14400575  0.65849519     0.66900
H728        H  0.14164898  0.16296018  0.64232585     0.15800
H729        H  0.14169334  0.09551793  0.73737297     0.15500
N730        N  0.08481697  0.11358002  0.71997450     0.74600
O731        O  0.20703217  0.12575635  0.63699748    -0.38800
O732        O  0.20995968  0.17125257  0.65987886    -0.38800
O733        O  0.07040260  0.08922654  0.71141248    -0.39500
O734        O  0.07103711  0.13342294  0.73695210    -0.39500
C735        C  0.93591768  0.23922688  0.71262440    -0.11800
C736        C  0.92223690  0.26761239  0.70241794     0.05200
C737        C  0.89688185  0.26664265  0.68150617    -0.07100
C738        C  0.88654486  0.23759998  0.67018723    -0.07800
C739        C  0.90195050  0.20951597  0.67850051    -0.02400
C740        C  0.92642668  0.21036921  0.70037349     0.04400
N741        N  0.94242171  0.18232872  0.70972431     0.66900
H742        H  0.95606098  0.23977987  0.72803771     0.15800
H743        H  0.86717637  0.23706961  0.65383247     0.15500
N744        N  0.88251997  0.29494172  0.67038242     0.74600
O745        O  0.96806422  0.17538474  0.69683259    -0.38800
O746        O  0.93487173  0.16887746  0.73500732    -0.38800
O747        O  0.89106051  0.30661343  0.64455250    -0.39500
O748        O  0.85725247  0.30408129  0.68262832    -0.39500
C749        C  0.77274070  0.12924881  0.70283865    -0.11800
C750        C  0.75280349  0.11829858  0.67924940     0.05200
C751        C  0.76215943  0.12240730  0.64769172    -0.07100
C752        C  0.79281569  0.13201485  0.64068394    -0.07800
C753        C  0.81381684  0.13949688  0.66464190    -0.02400
C754        C  0.80287345  0.14001387  0.69582893     0.04400
N755        N  0.82313812  0.14820210  0.72107309     0.66900
H756        H  0.76634384  0.12614671  0.72719451     0.15800
H757        H  0.80035160  0.13318516  0.61650435     0.15500
N758        N  0.74137162  0.11497225  0.62263992     0.74600
O759        O  0.82261699  0.17587094  0.73157256    -0.38800
O760        O  0.83635371  0.12671012  0.73673734    -0.38800
O761        O  0.72436228  0.13649054  0.61130083    -0.39500
O762        O  0.74562174  0.09016087  0.60716034    -0.39500
C763        C  0.89742128  0.90447381  0.70132086    -0.11800
C764        C  0.89569369  0.91055291  0.66915736     0.05200
C765        C  0.89990347  0.88582751  0.64799055    -0.07100
C766        C  0.90935985  0.85621538  0.65912358    -0.07800
C767        C  0.91574450  0.85140811  0.69116981    -0.02400
C768        C  0.90742502  0.87519754  0.71251917     0.04400
N769        N  0.91331387  0.87166182  0.74524551     0.66900
H770        H  0.89300409  0.92322375  0.71782084     0.15800
H771        H  0.91560941  0.83820848  0.64241113     0.15500
N772        N  0.89568620  0.89088005  0.61519039     0.74600
O773        O  0.93880900  0.88142171  0.75637352    -0.38800
O774        O  0.89068822  0.86639705  0.76348818    -0.38800
O775        O  0.91906710  0.89693596  0.59816799    -0.39500
O776        O  0.86846014  0.89466377  0.60435641    -0.39500
C777        C  0.78844634  0.01800507  0.71164333    -0.11800
C778        C  0.76203754  0.01253039  0.69295063     0.05200
C779        C  0.76554318  0.99520809  0.66520090    -0.07100
C780        C  0.79557006  0.98716201  0.65471510    -0.07800
C781        C  0.82216449  0.99588356  0.67179613    -0.02400
C782        C  0.81836525  0.00970459  0.70132794     0.04400
N783        N  0.84475896  0.01645737  0.72059873     0.66900
H784        H  0.78614793  0.03148845  0.73295654     0.15800
H785        H  0.79816391  0.97423968  0.63310148     0.15500
N786        N  0.73886044  0.98628229  0.64724466     0.74600
O787        O  0.85586475  0.04394329  0.72072790    -0.38800
O788        O  0.85233822  0.99735018  0.74201397    -0.38800
O789        O  0.72740143  0.95917157  0.65105193    -0.39500
O790        O  0.73119081  0.00232721  0.62352682    -0.39500
C791        C  0.16870570  0.99632076  0.70450870    -0.11800
C792        C  0.18849074  0.01150749  0.68300791     0.05200
C793        C  0.18062514  0.01021609  0.65084987    -0.07100
C794        C  0.15087831  0.99988908  0.64172143    -0.07800
C795        C  0.12950024  0.98864760  0.66388715    -0.02400
C796        C  0.13951947  0.98461448  0.69519309     0.04400
N797        N  0.11924908  0.97144172  0.71842307     0.66900
H798        H  0.17415634  0.99690138  0.72925390     0.15800
H799        H  0.14429513  0.00114003  0.61726909     0.15500
N800        N  0.20152001  0.02207073  0.62751259     0.74600
O801        O  0.12296545  0.94315234  0.72679698    -0.38800
O802        O  0.10291336  0.98948734  0.73513697    -0.38800
O803        O  0.21906827  0.00295427  0.61339004    -0.39500
O804        O  0.19650860  0.04879343  0.61547019    -0.39500
C805        C  0.03165919  0.85649006  0.65742213    -0.11800
C806        C  0.02547190  0.85359329  0.68964154     0.05200
C807        C  0.03361092  0.87858882  0.70953432    -0.07100
C808        C  0.04442392  0.90686558  0.69675157    -0.07800
C809        C  0.04710283  0.91090535  0.66434005    -0.02400
C810        C  0.04200318  0.88505901  0.64459647     0.04400
N811        N  0.04669643  0.88752532  0.61160132     0.66900
H812        H  0.02522760  0.83756645  0.64182700     0.15800
H813        H  0.04943265  0.92633737  0.71220960     0.15500
N814        N  0.02775835  0.87692912  0.74238782     0.74600
O815        O  0.07329956  0.88128229  0.60041279    -0.38800
O816        O  0.02325315  0.88823297  0.59367007    -0.38800
O817        O  0.05017910  0.87107576  0.76071622    -0.39500
O818        O  0.00301170  0.88886700  0.75317387    -0.39500
C819        C  0.28224791  0.10438994  0.19119539    -0.11800
C820        C  0.29144331  0.11550088  0.22077565     0.05200
C821        C  0.31449999  0.13907841  0.22245101    -0.07100
C822        C  0.32898718  0.14988725  0.19503540    -0.07800
C823        C  0.32151466  0.13677023  0.16599528    -0.02400
C824        C  0.29743920  0.11452156  0.16397079     0.04400
N825        N  0.28859742  0.10178685  0.13443272     0.66900
H826        H  0.26530775  0.08549819  0.18960120     0.15800
H827        H  0.34695708  0.16779082  0.19653485     0.15500
N828        N  0.32489535  0.15069230  0.25191893     0.74600
O829        O  0.30296301  0.07816600  0.12388015    -0.38800
O830        O  0.27078305  0.11740253  0.11662085    -0.38800
O831        O  0.35077617  0.14143626  0.26284280    -0.39500
O832        O  0.31234176  0.17513884  0.26287019    -0.39500
C833        C  0.29493642  0.26242596  0.08445715    -0.11800
C834        C  0.31714528  0.28629077  0.08046406     0.05200
C835        C  0.34861905  0.27999430  0.08841555    -0.07100
C836        C  0.35817487  0.24896696  0.09515679    -0.07800
C837        C  0.33620682  0.22443360  0.09571927    -0.02400
C838        C  0.30416668  0.23172471  0.09179521     0.04400
N839        N  0.28091169  0.20758934  0.09237174     0.66900
H840        H  0.27076102  0.26667393  0.07794555     0.15800
H841        H  0.38259322  0.24406632  0.09999932     0.15500
N842        N  0.37122386  0.30472021  0.08719105     0.74600
O843        O  0.26393273  0.20424816  0.11630576    -0.38800
O844        O  0.27284469  0.19478134  0.06709850    -0.38800
O845        O  0.36933168  0.32715128  0.10628427    -0.39500
O846        O  0.38970376  0.30679855  0.06425636    -0.39500
C847        C  0.30617219  0.98728543  0.19130556    -0.11800
C848        C  0.33833560  0.99130488  0.18554577     0.05200
C849        C  0.35752895  0.00132842  0.21031533    -0.07100
C850        C  0.34388825  0.01011969  0.23893782    -0.07800
C851        C  0.31105834  0.01094031  0.24269845    -0.02400
C852        C  0.29248068  0.99682172  0.21944326     0.04400
N853        N  0.25916575  0.99577574  0.22223433     0.66900
H854        H  0.29110304  0.97828005  0.17305285     0.15800
H855        H  0.35863337  0.02072021  0.25657546     0.15500
N856        N  0.39063469  0.00374264  0.20657800     0.74600
O857        O  0.24294603  0.01809047  0.21125039    -0.38800
O858        O  0.24608737  0.96995405  0.22876423    -0.38800
O859        O  0.40262679  0.03031531  0.20104636    -0.39500
O860        O  0.40786704  0.98157896  0.21621104    -0.39500
C861        C  0.30164852  0.91117777  0.10143994    -0.11800
C862        C  0.33426143  0.91459387  0.10337690     0.05200
C863        C  0.35341900  0.88815203  0.09870224    -0.07100
C864        C  0.34001950  0.85960591  0.08955751    -0.07800
C865        C  0.30776120  0.85738177  0.08316344    -0.02400
C866        C  0.28828546  0.88296051  0.09111810     0.04400
N867        N  0.25521605  0.88156594  0.08642620     0.66900
H868        H  0.28654989  0.93100320  0.10658154     0.15800
H869        H  0.35537656  0.84028352  0.08340760     0.15500
N870        N  0.38660185  0.89022429  0.10196270     0.74600
O871        O  0.24368443  0.89146889  0.06103973    -0.38800
O872        O  0.23752704  0.87740935  0.10972243    -0.38800
O873        O  0.39917989  0.88234391  0.12753255    -0.39500
O874        O  0.40339409  0.89343596  0.07787825    -0.39500
C875        C  0.30402892  0.98269614  0.86049194    -0.11800
C876        C  0.33594738  0.98788157  0.86706255     0.05200
C877        C  0.35534781  0.99839773  0.84243401    -0.07100
C878        C  0.34191944  0.00803958  0.81385287    -0.07800
C879        C  0.30920924  0.00768144  0.80945406    -0.02400
C880        C  0.29083623  0.99170894  0.83174501     0.04400
N881        N  0.25797041  0.98786493  0.82689758     0.66900
H882        H  0.28885989  0.97276662  0.87829428     0.15800
H883        H  0.35663441  0.01954289  0.79659545     0.15500
N884        N  0.38856730  0.99913400  0.84580715     0.74600
O885        O  0.23916214  0.00926661  0.83489065    -0.38800
O886        O  0.24817756  0.96487055  0.81118475    -0.38800
O887        O  0.40450829  0.97635379  0.83567207    -0.39500
O888        O  0.40194761  0.02499492  0.85107271    -0.39500
C889        C  0.35668794  0.88828090  0.95881187    -0.11800
C890        C  0.33476909  0.91178291  0.95175089     0.05200
C891        C  0.30264360  0.90401858  0.95196255    -0.07100
C892        C  0.29288994  0.87422898  0.96230568    -0.07800
C893        C  0.31461351  0.85181181  0.97286178    -0.02400
C894        C  0.34692736  0.85827644  0.96870741     0.04400
N895        N  0.37012340  0.83541216  0.97691103     0.66900
H896        H  0.38148276  0.89331730  0.95695724     0.15800
H897        H  0.26809649  0.87011241  0.96582095     0.15500
N898        N  0.27942080  0.92714171  0.94472959     0.74600
O899        O  0.38431128  0.83768654  0.00266984    -0.38800
O900        O  0.38188007  0.81873086  0.95561149    -0.38800
O901        O  0.26438491  0.92519324  0.91943629    -0.39500
O902        O  0.26911782  0.94449327  0.96624209    -0.39500
C903        C  0.34371033  0.27611605  0.96484108    -0.11800
C904        C  0.31255893  0.28133066  0.97425701     0.05200
C905        C  0.29074205  0.25656532  0.97145296    -0.07100
C906        C  0.30084656  0.22687347  0.96186554    -0.07800
C907        C  0.33258465  0.22089785  0.95608792    -0.02400
C908        C  0.35401618  0.24594020  0.95669391     0.04400
N909        N  0.38644411  0.24086573  0.95041141     0.66900
H910        H  0.36085096  0.29467603  0.96753501     0.15800
H911        H  0.28405180  0.20780384  0.96082448     0.15500
N912        N  0.25929427  0.25989335  0.98240400     0.74600
O913        O  0.39705511  0.24658749  0.92343781    -0.38800
O914        O  0.40519726  0.23711982  0.97292404    -0.38800
O915        O  0.23729678  0.26236940  0.96286511    -0.39500
O916        O  0.25300479  0.25343926  0.01056366    -0.39500
C917        C  0.33358795  0.13925135  0.85631171    -0.11800
C918        C  0.31794741  0.13518259  0.88473195     0.05200
C919        C  0.28683116  0.12451038  0.88485731    -0.07100
C920        C  0.27306763  0.11441130  0.85686414    -0.07800
C921        C  0.28981229  0.11583391  0.82852954    -0.02400
C922        C  0.31955731  0.13022172  0.82825155     0.04400
N923        N  0.33681075  0.13334643  0.79980835     0.66900
H924        H  0.35691022  0.14925693  0.85593275     0.15800
H925        H  0.25045077  0.10292619  0.85766889     0.15500
N926        N  0.26951722  0.12292277  0.91343787     0.74600
O927        O  0.36044345  0.11614125  0.79524459    -0.38800
O928        O  0.33274181  0.15749022  0.78296026    -0.38800
O929        O  0.25380366  0.14651332  0.92197925    -0.39500
O930        O  0.27521840  0.10120164  0.93289063    -0.39500
C931        C  0.60255785  0.24566637  0.10064403    -0.11800
C932        C  0.62154444  0.21872890  0.09986718     0.05200
C933        C  0.65387810  0.22204146  0.09427213    -0.07100
C934        C  0.66606040  0.25150115  0.08621052    -0.07800
C935        C  0.64636394  0.27774447  0.08334064    -0.02400
C936        C  0.61496888  0.27523775  0.09299412     0.04400
N937        N  0.59498424  0.30221508  0.09209651     0.66900
H938        H  0.57806748  0.24367186  0.10694636     0.15800
H939        H  0.69013469  0.25304175  0.07831491     0.15500
N940        N  0.67421890  0.19534735  0.09430268     0.74600
O941        O  0.57683980  0.30646279  0.06917828    -0.38800
O942        O  0.59924299  0.32417759  0.11133163    -0.38800
O943        O  0.68062381  0.18221915  0.06870526    -0.39500
O944        O  0.69147648  0.19025311  0.11773435    -0.39500
C945        C  0.59830006  0.12563497  0.23710535    -0.11800
C946        C  0.63066035  0.12414209  0.24352210     0.05200
C947        C  0.65159262  0.13759755  0.22169881    -0.07100
C948        C  0.64050644  0.14789467  0.19269020    -0.07800
C949        C  0.60888570  0.14469703  0.18441757    -0.02400
C950        C  0.58738296  0.13471571  0.20738156     0.04400
N951        N  0.55478526  0.13213094  0.20055973     0.66900
H952        H  0.58190643  0.11524696  0.25352930     0.15800
H953        H  0.65730594  0.15636639  0.17559860     0.15500
N954        N  0.68468865  0.13634464  0.22645572     0.74600
O955        O  0.54393100  0.10590952  0.19219489    -0.38800
O956        O  0.53627053  0.15308033  0.21021294    -0.38800
O957        O  0.70054696  0.11527951  0.21307866    -0.39500
O958        O  0.69849125  0.15989964  0.23773999    -0.39500
C959        C  0.65159398  0.22710436  0.95256250    -0.11800
C960        C  0.61917227  0.22267573  0.95072753     0.05200
C961        C  0.59914725  0.24818599  0.95665626    -0.07100
C962        C  0.61165873  0.27673605  0.96728712    -0.07800
C963        C  0.64405761  0.28000160  0.97294248    -0.02400
C964        C  0.66414763  0.25527026  0.96384492     0.04400
N965        N  0.69700719  0.25675151  0.96969324     0.66900
H966        H  0.66726544  0.20789540  0.94684706     0.15800
H967        H  0.59574483  0.29517496  0.97455232     0.15500
N968        N  0.56609210  0.24509435  0.95264597     0.74600
O969        O  0.70791460  0.24362661  0.99391217    -0.38800
O970        O  0.71523563  0.26337344  0.94739515    -0.38800
O971        O  0.54940338  0.23585108  0.97524587    -0.39500
O972        O  0.55453596  0.24624952  0.92550978    -0.39500
C973        C  0.59376125  0.13511149  0.84590502    -0.11800
C974        C  0.61571039  0.14693137  0.86703378     0.05200
C975        C  0.64668675  0.15241483  0.85638710    -0.07100
C976        C  0.65601437  0.14189609  0.82681771    -0.07800
C977        C  0.63512588  0.12567823  0.80760513    -0.02400
C978        C  0.60296709  0.12556390  0.81593113     0.04400
N979        N  0.58021937  0.11144046  0.79597636     0.66900
H980        H  0.56951686  0.13255293  0.85291936     0.15800
H981        H  0.68069963  0.14230818  0.82094629     0.15500
N982        N  0.66995987  0.16533835  0.87652782     0.74600
O983        O  0.56900745  0.08490407  0.80317532    -0.38800
O984        O  0.56596432  0.12849773  0.77634707    -0.38800
O985        O  0.68699267  0.14700646  0.89245766    -0.39500
O986        O  0.67837808  0.19353790  0.87261753    -0.39500
C987        C  0.64732234  0.90280383  0.95634470    -0.11800
C988        C  0.61511950  0.90879041  0.95430255     0.05200
C989        C  0.59398080  0.88370431  0.95807759    -0.07100
C990        C  0.60529684  0.85372912  0.96614764    -0.07800
C991        C  0.63726465  0.84892389  0.97279352    -0.02400
C992        C  0.65854954  0.87335880  0.96585278     0.04400
N993        N  0.69117283  0.87008123  0.97248245     0.66900
H994        H  0.66387973  0.92172524  0.95235409     0.15800
H995        H  0.58859692  0.83536836  0.97179097     0.15500
N996        N  0.56100680  0.88852574  0.95538582     0.74600
O997        O  0.70990384  0.86477545  0.95031897    -0.38800
O998        O  0.70174048  0.87993124  0.99816679    -0.38800
O999        O  0.54705324  0.87948475  0.93106410    -0.39500
O1000       O  0.54527566  0.89438641  0.97964232    -0.39500
C1001       C  0.65533045  0.99424148  0.87463772    -0.11800
C1002       C  0.62283950  0.99303215  0.87896510     0.05200
C1003       C  0.60280871  0.99997718  0.85383423    -0.07100
C1004       C  0.61549269  0.00921412  0.82515308    -0.07800
C1005       C  0.64776477  0.01492946  0.82211037    -0.02400
C1006       C  0.66796077  0.00608430  0.84674752     0.04400
N1007       N  0.70075243  0.01245525  0.84528325     0.66900
H1008       H  0.67086139  0.98814934  0.89379552     0.15800
H1009       H  0.59969465  0.01665037  0.80667384     0.15500
N1010       N  0.56961008  0.00031246  0.85778260     0.74600
O1011       O  0.71086440  0.03845225  0.85512039    -0.38800
O1012       O  0.71964350  0.98992593  0.84167017    -0.38800
O1013       O  0.55618863  0.02579651  0.86474413    -0.39500
O1014       O  0.55353421  0.97777061  0.84750517    -0.39500
C1015       C  0.66884096  0.02171602  0.20242324    -0.11800
C1016       C  0.64885660  0.01843608  0.22839205     0.05200
C1017       C  0.61973247  0.00322093  0.22455654    -0.07100
C1018       C  0.61017510  0.99388522  0.19480395    -0.07800
C1019       C  0.62909964  0.99963701  0.16874097    -0.02400
C1020       C  0.65904243  0.01249533  0.17264131     0.04400
N1021       N  0.67866032  0.01832331  0.14617502     0.66900
H1022       H  0.69073290  0.03434884  0.20473341     0.15800
H1023       H  0.58747235  0.98293025  0.19189210     0.15500
N1024       N  0.59834244  0.00000448  0.25007246     0.74600
O1025       O  0.67391140  0.04238602  0.12937633    -0.38800
O1026       O  0.69624654  0.99672584  0.13623678    -0.38800
O1027       O  0.57574506  0.01901454  0.25231797    -0.39500
O1028       O  0.59727151  0.97425693  0.26488482    -0.39500
C1029       C  0.66062785  0.87265094  0.08792882    -0.11800
C1030       C  0.63662202  0.85123532  0.08142486     0.05200
C1031       C  0.60522759  0.86049481  0.08704422    -0.07100
C1032       C  0.59836805  0.89199151  0.09363642    -0.07800
C1033       C  0.62235831  0.91417459  0.09615753    -0.02400
C1034       C  0.65378496  0.90394679  0.09509623     0.04400
N1035       N  0.67906749  0.92568826  0.09795472     0.66900
H1036       H  0.68477736  0.86626564  0.08340540     0.15800
H1037       H  0.57418054  0.89923570  0.09626845     0.15500
N1038       N  0.57990555  0.83897597  0.08285003     0.74600
O1039       O  0.69464449  0.92621659  0.12300151    -0.38800
O1040       O  0.69041819  0.93807960  0.07357388    -0.38800
O1041       O  0.56779606  0.82623356  0.10667251    -0.39500
O1042       O  0.56458759  0.83960885  0.05762517    -0.39500
C1043       C  0.05276985  0.39621073  0.19318660    -0.11800
C1044       C  0.05339786  0.42870326  0.18684044     0.05200
C1045       C  0.04548274  0.44979753  0.21081610    -0.07100
C1046       C  0.03507337  0.43826966  0.23976689    -0.07800
C1047       C  0.03067375  0.40587744  0.24473879    -0.02400
C1048       C  0.04119246  0.38466512  0.22176447     0.04400
N1049       N  0.03575888  0.35162590  0.22533251     0.66900
H1050       H  0.05941749  0.37970421  0.17514357     0.15800
H1051       H  0.02638636  0.45481070  0.25690180     0.15500
N1052       N  0.04608809  0.48298892  0.20557678     0.74600
O1053       O  0.01089251  0.33969399  0.21482652    -0.38800
O1054       O  0.05332915  0.33541933  0.24286329    -0.38800
O1055       O  0.02082523  0.49723006  0.19963298    -0.39500
O1056       O  0.06962515  0.49854096  0.21424028    -0.39500
C1057       C  0.14015133  0.39730278  0.10787310    -0.11800
C1058       C  0.13444262  0.42984333  0.10732339     0.05200
C1059       C  0.15857415  0.45031010  0.09778572    -0.07100
C1060       C  0.18670056  0.43784238  0.08633619    -0.07800
C1061       C  0.19058442  0.40516599  0.08280205    -0.02400
C1062       C  0.16779075  0.38483154  0.09544283     0.04400
N1063       N  0.17038707  0.35153879  0.09178642     0.66900
H1064       H  0.12206857  0.38130994  0.11590714     0.15800
H1065       H  0.20391840  0.45375773  0.07643278     0.15500
N1066       N  0.15451037  0.48366027  0.09840469     0.74600
O1067       O  0.17906708  0.33473577  0.11462673    -0.38800
O1068       O  0.15882859  0.33861869  0.06796258    -0.38800
O1069       O  0.16503523  0.49893833  0.12129276    -0.39500
O1070       O  0.14770087  0.49810480  0.07343573    -0.39500
C1071       C  0.13291331  0.39306478  0.95224896    -0.11800
C1072       C  0.12807511  0.42571431  0.95104306     0.05200
C1073       C  0.15349096  0.44595624  0.95626279    -0.07100
C1074       C  0.18226412  0.43347802  0.96596906    -0.07800
C1075       C  0.18577416  0.40099740  0.97162943    -0.02400
C1076       C  0.16152287  0.38057682  0.96251638     0.04400
N1077       N  0.16458488  0.34729591  0.96634438     0.66900
H1078       H  0.11388416  0.37721347  0.94670675     0.15800
H1079       H  0.20070812  0.44949726  0.97283025     0.15500
N1080       N  0.15023543  0.47920846  0.95247900     0.74600
O1081       O  0.15515045  0.33426736  0.99120706    -0.38800
O1082       O  0.17080590  0.33059671  0.94286153    -0.38800
O1083       O  0.14593983  0.49619184  0.97618131    -0.39500
O1084       O  0.15779991  0.49189895  0.92681541    -0.39500
C1085       C  0.05583338  0.39952499  0.86218121    -0.11800
C1086       C  0.04751537  0.43005607  0.87177394     0.05200
C1087       C  0.03104690  0.44948706  0.85060200    -0.07100
C1088       C  0.02157832  0.43742923  0.82157012    -0.07800
C1089       C  0.02521813  0.40518968  0.81455863    -0.02400
C1090       C  0.04462535  0.38690127  0.83416579     0.04400
N1091       N  0.04967755  0.35425608  0.82818126     0.66900
H1092       H  0.06931884  0.38438302  0.87761299     0.15800
H1093       H  0.00650201  0.45182855  0.80692289     0.15500
N1094       N  0.02186527  0.48066586  0.85888851     0.74600
O1095       O  0.07446333  0.34582739  0.81453527    -0.38800
O1096       O  0.03358112  0.33397409  0.84263893    -0.38800
O1097       O  0.03518630  0.50382368  0.84597672    -0.39500
O1098       O  0.99610611  0.48480714  0.87272757    -0.39500
C1099       C  0.79868112  0.45033442  0.96399248    -0.11800
C1100       C  0.82170070  0.42695441  0.96430133     0.05200
C1101       C  0.81305314  0.39529675  0.96900199    -0.07100
C1102       C  0.78205940  0.38783796  0.97628752    -0.07800
C1103       C  0.75933883  0.41159072  0.97908429    -0.02400
C1104       C  0.76749025  0.44280011  0.97074074     0.04400
N1105       N  0.74461999  0.46733747  0.97085759     0.66900
H1106       H  0.80490811  0.47444264  0.95842781     0.15800
H1107       H  0.77655978  0.36386323  0.98312111     0.15500
N1108       N  0.83598130  0.37071821  0.96818919     0.74600
O1109       O  0.74417221  0.48668078  0.99310262    -0.38800
O1110       O  0.73092867  0.47436601  0.94562110    -0.38800
O1111       O  0.85747429  0.36977452  0.98841255    -0.39500
O1112       O  0.83724644  0.35265983  0.94492765    -0.39500
C1113       C  0.89208169  0.42018592  0.86271317    -0.11800
C1114       C  0.90460890  0.40971763  0.89120970     0.05200
C1115       C  0.92181494  0.38162122  0.89223824    -0.07100
C1116       C  0.92865086  0.36585003  0.86441866    -0.07800
C1117       C  0.91986346  0.37874282  0.83525150    -0.02400
C1118       C  0.89979086  0.40513213  0.83473036     0.04400
N1119       N  0.88994562  0.41896386  0.80582444     0.66900
H1120       H  0.87729045  0.44092874  0.86205934     0.15800
H1121       H  0.94459357  0.34599148  0.86525791     0.15500
N1122       N  0.93403998  0.37001073  0.92119083     0.74600
O1123       O  0.86235245  0.41430507  0.79645150    -0.38800
O1124       O  0.90538646  0.44157282  0.79440583    -0.38800
O1125       O  0.91620363  0.35585526  0.94011335    -0.39500
O1126       O  0.96064112  0.37902956  0.93023784    -0.39500
C1127       C  0.90131632  0.44035828  0.20588436    -0.11800
C1128       C  0.90083466  0.41990458  0.18024650     0.05200
C1129       C  0.90638906  0.38753867  0.18528687    -0.07100
C1130       C  0.91621894  0.37682444  0.21468596    -0.07800
C1131       C  0.92009126  0.39789232  0.23936578    -0.02400
C1132       C  0.90996658  0.42921849  0.23562702     0.04400
N1133       N  0.91134570  0.45032846  0.26147462     0.66900
H1134       H  0.89518652  0.46492712  0.20275195     0.15800
H1135       H  0.92425480  0.35273124  0.21722445     0.15500
N1136       N  0.90447626  0.36558768  0.16025442     0.74600
O1137       O  0.93347084  0.46985458  0.26328175    -0.38800
O1138       O  0.89440296  0.44521552  0.28514990    -0.38800
O1139       O  0.92799448  0.36152344  0.14288934    -0.39500
O1140       O  0.88312304  0.34512400  0.16071311    -0.39500
C1141       C  0.79535886  0.44671609  0.10532128    -0.11800
C1142       C  0.82077757  0.42648040  0.10034508     0.05200
C1143       C  0.81525975  0.39612132  0.08879824    -0.07100
C1144       C  0.78494586  0.38710551  0.08034589    -0.07800
C1145       C  0.75973228  0.40826878  0.08253821    -0.02400
C1146       C  0.76494968  0.43788694  0.09646618     0.04400
N1147       N  0.73986936  0.45977027  0.10033395     0.66900
H1148       H  0.79921260  0.46963574  0.11556569     0.15800
H1149       H  0.78171211  0.36469483  0.06883079     0.15500
N1150       N  0.84071228  0.37505421  0.08337027     0.74600
O1151       O  0.72653846  0.46160858  0.12659381    -0.38800
O1152       O  0.73646348  0.48186434  0.08076738    -0.38800
O1153       O  0.84865149  0.35562938  0.10433204    -0.39500
O1154       O  0.85779889  0.37873799  0.05956350    -0.39500
C1155       C  0.02515755  0.75855720  0.21541856    -0.11800
C1156       C  0.02459791  0.73555293  0.23913384     0.05200
C1157       C  0.03633294  0.70520222  0.23250482    -0.07100
C1158       C  0.04474363  0.69745714  0.20186988    -0.07800
C1159       C  0.04209544  0.71960799  0.17765513    -0.02400
C1160       C  0.03350688  0.75075610  0.18473752     0.04400
N1161       N  0.02997997  0.77385083  0.16056256     0.66900
H1162       H  0.01533000  0.78164205  0.21982426     0.15800
H1163       H  0.05272714  0.67380158  0.19683773     0.15500
N1164       N  0.03717622  0.68124702  0.25609350     0.74600
O1165       O  0.00521348  0.77421771  0.14449312    -0.38800
O1166       O  0.04760993  0.79763349  0.16025729    -0.38800
O1167       O  0.01671911  0.65986205  0.25601057    -0.39500
O1168       O  0.06209594  0.67704345  0.27138922    -0.39500
C1169       C  0.16135535  0.75613942  0.08181146    -0.11800
C1170       C  0.18486491  0.73296314  0.08055521     0.05200
C1171       C  0.17790099  0.70240429  0.09187558    -0.07100
C1172       C  0.14717396  0.69460607  0.10031499    -0.07800
C1173       C  0.12333283  0.71715479  0.09892480    -0.02400
C1174       C  0.13082556  0.74847867  0.09121483     0.04400
N1175       N  0.10715578  0.77227303  0.09107629     0.66900
H1176       H  0.16595907  0.77955721  0.07274298     0.15800
H1177       H  0.14189363  0.67080672  0.10789016     0.15500
N1178       N  0.20158184  0.67870518  0.09367268     0.74600
O1179       O  0.10394333  0.78969422  0.11462652    -0.38800
O1180       O  0.08634946  0.77228760  0.07013721    -0.38800
O1181       O  0.21496615  0.67374749  0.11954094    -0.39500
O1182       O  0.20300956  0.65794402  0.07277409    -0.39500
C1183       C  0.89227447  0.73266930  0.19822298    -0.11800
C1184       C  0.89550038  0.70091241  0.18984233     0.05200
C1185       C  0.90512891  0.67909421  0.21285609    -0.07100
C1186       C  0.91434454  0.68984241  0.24245196    -0.07800
C1187       C  0.91610795  0.72230437  0.24887107    -0.02400
C1188       C  0.90260929  0.74355030  0.22725126     0.04400
N1189       N  0.90315384  0.77670949  0.23250308     0.66900
H1190       H  0.88383699  0.74969515  0.18120041     0.15800
H1191       H  0.92445115  0.67313176  0.25885359     0.15500
N1192       N  0.90687923  0.64623886  0.20632586     0.74600
O1193       O  0.92550327  0.79284723  0.22171743    -0.38800
O1194       O  0.87832216  0.79041159  0.24082015    -0.38800
O1195       O  0.93334363  0.63362942  0.20247097    -0.39500
O1196       O  0.88356478  0.62903039  0.21229745    -0.39500
C1197       C  0.79701296  0.69204385  0.10637265    -0.11800
C1198       C  0.82321393  0.71177888  0.10378835     0.05200
C1199       C  0.81879369  0.74357768  0.09525626    -0.07100
C1200       C  0.78922700  0.75395571  0.08545342    -0.07800
C1201       C  0.76368381  0.73327866  0.08491550    -0.02400
C1202       C  0.76722464  0.70289316  0.09770902     0.04400
N1203       N  0.74083731  0.68243095  0.10019206     0.66900
H1204       H  0.79973352  0.66817010  0.11502878     0.15800
H1205       H  0.78686208  0.77738460  0.07553643     0.15500
N1206       N  0.84425425  0.76531818  0.09538442     0.74600
O1207       O  0.73395621  0.66452547  0.07782626    -0.38800
O1208       O  0.72139888  0.68644711  0.12202619    -0.38800
O1209       O  0.85565944  0.77462836  0.06972744    -0.39500
O1210       O  0.84981566  0.78067585  0.11990483    -0.39500
C1211       C  0.90145203  0.68942644  0.85040055    -0.11800
C1212       C  0.90074058  0.71022348  0.87578735     0.05200
C1213       C  0.90662672  0.74242784  0.87059185    -0.07100
C1214       C  0.91550538  0.75298667  0.84093000    -0.07800
C1215       C  0.91957886  0.73172680  0.81641073    -0.02400
C1216       C  0.91038722  0.70019998  0.82059377     0.04400
N1217       N  0.91227801  0.67874524  0.79507248     0.66900
H1218       H  0.89540303  0.66489092  0.85380846     0.15800
H1219       H  0.92333697  0.77711069  0.83817467     0.15500
N1220       N  0.90704126  0.76414258  0.89591607     0.74600
O1221       O  0.93592690  0.66116572  0.79234638    -0.38800
O1222       O  0.89367471  0.68183089  0.77233593    -0.38800
O1223       O  0.93192272  0.76745100  0.91142196    -0.39500
O1224       O  0.88626814  0.78518684  0.89725925    -0.39500
C1225       C  0.79796093  0.68394145  0.96268376    -0.11800
C1226       C  0.81951159  0.70750871  0.95494599     0.05200
C1227       C  0.80941531  0.73917197  0.95443755    -0.07100
C1228       C  0.77935063  0.74692837  0.96491305    -0.07800
C1229       C  0.75898264  0.72365326  0.97615245    -0.02400
C1230       C  0.76763825  0.69168058  0.97254623     0.04400
N1231       N  0.74694988  0.66693844  0.98187914     0.66900
H1232       H  0.80486448  0.65942100  0.96161637     0.15800
H1233       H  0.77347633  0.77154903  0.96791413     0.15500
N1234       N  0.83033768  0.76410490  0.94644271     0.74600
O1235       O  0.72899556  0.65505651  0.96175965    -0.38800
O1236       O  0.75218628  0.65202880  0.00696284    -0.38800
O1237       O  0.82553646  0.77961751  0.92164703    -0.39500
O1238       O  0.84726767  0.77582225  0.96753360    -0.39500
C1239       C  0.15471922  0.68602873  0.95947172    -0.11800
C1240       C  0.13181866  0.70948507  0.95630487     0.05200
C1241       C  0.14097269  0.74130159  0.95862924    -0.07100
C1242       C  0.17161512  0.74894119  0.96733452    -0.07800
C1243       C  0.19359991  0.72540285  0.97429711    -0.02400
C1244       C  0.18560048  0.69377378  0.96776524     0.04400
N1245       N  0.20810586  0.66913000  0.97147125     0.66900
H1246       H  0.14854991  0.66160444  0.95582954     0.15800
H1247       H  0.17697308  0.77327808  0.97254119     0.15500
N1248       N  0.11869138  0.76615993  0.95530372     0.74600
O1249       O  0.20740388  0.65198405  0.99566318    -0.38800
O1250       O  0.22301325  0.65980165  0.94779609    -0.38800
O1251       O  0.10401143  0.77543633  0.97914120    -0.39500
O1252       O  0.11995403  0.78374871  0.93145274    -0.39500
C1253       C  0.02540834  0.75815454  0.84810796    -0.11800
C1254       C  0.02772188  0.73950757  0.82116690     0.05200
C1255       C  0.04353069  0.71047862  0.82311183    -0.07100
C1256       C  0.05358192  0.69892827  0.85230204    -0.07800
C1257       C  0.04850169  0.71640597  0.87959080    -0.02400
C1258       C  0.03565575  0.74678153  0.87717681     0.04400
N1259       N  0.03083620  0.76532654  0.90450065     0.66900
H1260       H  0.01255373  0.78015306  0.84716023     0.15800
H1261       H  0.06473833  0.67605407  0.85377200     0.15500
N1262       N  0.04711590  0.69156878  0.79585292     0.74600
O1263       O  0.05307815  0.78134326  0.91540183    -0.38800
O1264       O  0.00610326  0.76194496  0.92028282    -0.38800
O1265       O  0.06603688  0.70001878  0.77475494    -0.39500
O1266       O  0.02766672  0.67000317  0.79034176    -0.39500
loop_ 
_geom_bond_atom_site_label_1 
_geom_bond_atom_site_label_2 
_geom_bond_distance 
_geom_bond_site_symmetry_2 
_ccdc_geom_bond_type 
C1            N2   1.352       .  A
C1            N6   1.369       .  A
C1         C1240   1.483       .  S
N2            C3   1.351       .  A
C3            N4   1.366       .  A
C3         C1257   1.473       .  S
N4            C5   1.366       .  A
C5            N6   1.370       .  A
C5           C51   1.494       .  S
C7            N8   1.351       .  A
C7           N12   1.366       .  A
C7         C1226   1.478       .  S
N8            C9   1.352       .  A
C9           N10   1.364       .  A
C9         C1212   1.471       .  S
N10          C11   1.365       .  A
C11          N12   1.366       .  A
C11          C57   1.485       .  S
C13          N14   1.369       .  A
C13          N18   1.350       .  A
C13        C1184   1.484       .  S
N14          C15   1.372       .  A
C15          N16   1.368       .  A
C15          C74   1.494       .  S
N16          C17   1.366       .  A
C17          N18   1.347       .  A
C17        C1198   1.472       .  S
C19          N20   1.364       .  A
C19          N24   1.352       .  A
C19        C1159   1.470       .  S
N20          C21   1.363       .  A
C21          N22   1.362       .  A
C21          C80   1.478       .  S
N22          C23   1.362       .  A
C23          N24   1.352       .  A
C23        C1173   1.471       .  S
C25          N26   1.351       .  A
C25          N30   1.366       .  A
C25        C1128   1.474       .  S
N26          C27   1.351       .  A
C27          N28   1.365       .  A
C27        C1142   1.474       .  S
N28          C29   1.367       .  A
C29          N30   1.367       .  A
C29          C77   1.489       .  S
C31          N32   1.362       .  A
C31          N36   1.344       .  A
C31        C1100   1.464       .  S
N32          C33   1.365       .  A
C33          N34   1.367       .  A
C33          C54   1.480       .  S
N34          C35   1.365       .  A
C35          N36   1.343       .  A
C35        C1114   1.463       .  S
C37          N38   1.364       .  A
C37          N42   1.347       .  A
C37        C1072   1.472       .  S
N38          C39   1.365       .  A
C39          N40   1.372       .  A
C39          C60   1.489       .  S
N40          C41   1.370       .  A
C41          N42   1.351       .  A
C41        C1086   1.489       .  S
C43          N44   1.351       .  A
C43          N48   1.366       .  A
C43        C1044   1.479       .  S
N44          C45   1.352       .  A
C45          N46   1.366       .  A
C45        C1058   1.478       .  S
N46          C47   1.367       .  A
C47          N48   1.367       .  A
C47          C71   1.489       .  S
O49         Zr61   2.442       .  S
O49          C51   1.287       .  A
O50         Zr87   2.501   1_456  S
O50          C51   1.302       .  A
O52         Zr64   2.444       .  S
O52          C54   1.288       .  A
O53         Zr88   2.468   1_556  S
O53          C54   1.295       .  A
O55         Zr64   2.448       .  S
O55          C57   1.288       .  A
O56         Zr87   2.475   1_556  S
O56          C57   1.297       .  A
O58         Zr61   2.438       .  S
O58          C60   1.286       .  A
O59         Zr88   2.495   1_456  S
O59          C60   1.301       .  A
Zr61         O62   2.435       .  S
Zr61         O63   2.437       .  S
Zr61         O67   2.379   1_455  S
Zr61         O68   2.374   1_455  S
Zr61         O91   2.376   1_556  S
Zr61         O93   2.372   1_556  S
O62         H105   0.990       .  S
O63         H104   0.990   1_556  S
O63         H108   0.990   1_556  S
Zr64         O65   2.435       .  S
Zr64         O66   2.435       .  S
Zr64         O68   2.369       .  S
Zr64         O67   2.375       .  S
Zr64         O92   2.375   1_556  S
Zr64         O94   2.375   1_556  S
O65         H106   0.990       .  S
O65         H109   0.990       .  S
O66          H99   0.990   1_556  S
O67         Zr87   2.396   1_556  S
O68         Zr88   2.401   1_556  S
O68          H95   0.969       .  S
O69         Zr81   2.441       .  S
O69          C71   1.287       .  A
O70         Zr88   2.491   1_455  S
O70          C71   1.300       .  A
O72         Zr84   2.436       .  S
O72          C74   1.286       .  A
O73         Zr87   2.502       .  S
O73          C74   1.302       .  A
O75         Zr84   2.439       .  S
O75          C77   1.286       .  A
O76         Zr88   2.491       .  S
O76          C77   1.300       .  A
O78         Zr81   2.449       .  S
O78          C80   1.289       .  A
O79         Zr87   2.460   1_455  S
O79          C80   1.294       .  A
Zr81         O82   2.436       .  S
Zr81         O83   2.434       .  S
Zr81         O89   2.376   1_455  S
Zr81         O90   2.371   1_455  S
Zr81         O93   2.371       .  S
Zr81         O91   2.379       .  S
O82         H102   0.990       .  S
O82         H107   0.990       .  S
O83         H103   0.990       .  S
Zr84         O85   2.435       .  S
Zr84         O86   2.435       .  S
Zr84         O90   2.371       .  S
Zr84         O89   2.374       .  S
Zr84         O94   2.371       .  S
Zr84         O92   2.376       .  S
O85         H101   0.990       .  S
O86         H100   0.990       .  S
O86         H110   0.990       .  S
Zr87         O90   2.395       .  S
Zr87         O92   2.399       .  S
Zr87         O93   2.400   1_655  S
Zr88         O89   2.400       .  S
Zr88         O91   2.396   1_655  S
Zr88         O94   2.399       .  S
O89          H97   0.962       .  S
O92          H96   0.959       .  S
O93          H98   0.966       .  S
C111        N112   1.347       .  A
C111        N116   1.361   1_565  A
C111       C1019   1.459       .  S
N112        C113   1.348       .  A
C113        N114   1.367       .  A
C113       C1033   1.472       .  S
N114        C115   1.366       .  A
C115        N116   1.361   1_565  A
C115        C161   1.480   1_565  S
C117        N118   1.347       .  A
C117        N122   1.360   1_565  A
C117       C1002   1.462       .  S
N118        C119   1.349       .  A
C119        N120   1.366       .  A
C119        C988   1.472       .  S
N120        C121   1.369       .  A
C121        N122   1.362   1_565  A
C121        C167   1.476   1_565  S
C123        N124   1.347       .  A
C123        N128   1.367       .  A
C123        C960   1.474       .  S
N124        C125   1.348       .  A
C125        N126   1.371       .  A
C125        C974   1.485       .  S
N126        C127   1.371       .  A
C127        N128   1.367       .  A
C127        C184   1.497       .  S
C129        N130   1.364       .  A
C129        N134   1.345       .  A
C129        C932   1.467       .  S
N130        C131   1.367       .  A
C131        N132   1.371       .  A
C131        C190   1.488       .  S
N132        C133   1.367       .  A
C133        N134   1.349       .  A
C133        C949   1.480       .  S
C135        N136   1.365       .  A
C135        N140   1.348       .  A
C135        C907   1.470       .  S
N136        C137   1.367       .  A
C137        N138   1.363       .  A
C137        C187   1.478       .  S
N138        C139   1.362       .  A
C139        N140   1.347       .  A
C139        C918   1.463       .  S
C141        N142   1.351       .  A
C141        N146   1.375       .  A
C141        C876   1.494       .  S
N142        C143   1.348       .  A
C143        N144   1.366       .  A
C143        C890   1.480       .  S
N144        C145   1.368       .  A
C145        N146   1.377       .  A
C145        C164   1.505   1_565  S
C147        N148   1.349       .  A
C147        N152   1.372   1_565  A
C147        C848   1.487       .  S
N148        C149   1.346       .  A
C149        N150   1.364       .  A
C149        C862   1.473       .  S
N150        C151   1.367       .  A
C151        N152   1.375   1_565  A
C151        C170   1.496   1_565  S
C153        N154   1.368       .  A
C153        N158   1.348       .  A
C153        C837   1.478       .  S
N154        C155   1.371       .  A
C155        N156   1.363       .  A
C155        C181   1.484       .  S
N156        C157   1.362       .  A
C157        N158   1.346       .  A
C157        C823   1.464       .  S
O159       Zr171   2.450       .  S
O159        C161   1.289       .  A
O160       Zr197   2.463       .  S
O160        C161   1.294       .  A
O162       Zr174   2.446       .  S
O162        C164   1.287       .  A
O163       Zr198   2.512   1_556  S
O163        C164   1.304       .  A
O165       Zr174   2.425       .  S
O165        C167   1.283       .  A
O166       Zr197   2.478   1_556  S
O166        C167   1.297       .  A
O168       Zr171   2.446       .  S
O168        C170   1.287       .  A
O169       Zr198   2.496       .  S
O169        C170   1.301       .  A
Zr171       O172   2.434   1_545  S
Zr171       O173   2.436       .  S
Zr171       O177   2.370       .  S
Zr171       O178   2.382       .  S
Zr171       O201   2.375       .  S
Zr171       O203   2.372       .  S
O172        H215   0.989       .  S
O173        H214   0.990       .  S
O173        H218   0.990       .  S
Zr174       O175   2.437   1_545  S
Zr174       O176   2.435       .  S
Zr174       O178   2.376   1_556  S
Zr174       O177   2.373   1_556  S
Zr174       O202   2.379       .  S
Zr174       O204   2.367       .  S
O175        H216   0.990       .  S
O175        H219   0.990       .  S
O176        H209   0.990       .  S
O177       Zr197   2.400       .  S
O178       Zr198   2.398       .  S
O178        H205   0.959   1_545  S
O179       Zr191   2.443       .  S
O179        C181   1.287       .  A
O180       Zr198   2.483       .  S
O180        C181   1.298       .  A
O182       Zr194   2.454       .  S
O182        C184   1.289       .  A
O183       Zr197   2.494   1_556  S
O183        C184   1.300       .  A
O185       Zr194   2.445       .  S
O185        C187   1.288       .  A
O186       Zr198   2.468   1_556  S
O186        C187   1.296       .  A
O188       Zr191   2.436       .  S
O188        C190   1.286       .  A
O189       Zr197   2.495       .  S
O189        C190   1.301       .  A
Zr191       O192   2.436       .  S
Zr191       O193   2.435       .  S
Zr191       O199   2.369       .  S
Zr191       O200   2.379       .  S
Zr191       O203   2.372       .  S
Zr191       O201   2.376       .  S
O192        H212   0.990       .  S
O192        H217   0.990       .  S
O193        H213   0.990       .  S
Zr194       O195   2.435       .  S
Zr194       O196   2.436       .  S
Zr194       O200   2.377   1_556  S
Zr194       O199   2.373   1_556  S
Zr194       O204   2.380       .  S
Zr194       O202   2.373       .  S
O195        H211   0.990       .  S
O196        H210   0.990       .  S
O196        H220   0.990       .  S
Zr197       O200   2.393       .  S
Zr197       O202   2.400   1_554  S
Zr197       O203   2.401       .  S
Zr198       O199   2.406       .  S
Zr198       O201   2.399       .  S
Zr198       O204   2.395   1_554  S
O199        H207   0.963       .  S
O202        H206   0.964       .  S
O203        H208   0.966       .  S
C221        N222   1.348       .  A
C221        N226   1.367       .  A
C221        C795   1.479       .  S
N222        C223   1.349       .  A
C223        N224   1.366       .  A
C223        C809   1.468       .  S
N224        C225   1.367       .  A
C225        N226   1.367       .  A
C225        C277   1.488   1_565  S
C227        N228   1.366   1_565  A
C227        N232   1.345       .  A
C227        C781   1.466       .  S
N228        C229   1.368   1_545  A
C229        N230   1.365       .  A
C229        C271   1.486   1_565  S
N230        C231   1.364       .  A
C231        N232   1.346       .  A
C231        C764   1.466       .  S
C233        N234   1.350       .  A
C233        N238   1.365       .  A
C233        C739   1.470       .  S
N234        C235   1.350       .  A
C235        N236   1.365       .  A
C235        C753   1.480       .  S
N236        C237   1.367       .  A
C237        N238   1.365       .  A
C237        C300   1.483       .  S
C239        N240   1.371       .  A
C239        N244   1.350       .  A
C239        C708   1.486       .  S
N240        C241   1.372       .  A
C241        N242   1.364       .  A
C241        C294   1.491       .  S
N242        C243   1.363       .  A
C243        N244   1.347       .  A
C243        C722   1.466       .  S
C245        N246   1.348       .  A
C245        N250   1.363       .  A
C245        C683   1.466       .  S
N246        C247   1.349       .  A
C247        N248   1.370       .  A
C247        C694   1.482       .  S
N248        C249   1.370       .  A
C249        N250   1.366       .  A
C249        C291   1.490       .  S
C251        N252   1.362   1_565  A
C251        N256   1.347       .  A
C251        C652   1.468       .  S
N252        C253   1.365   1_545  A
C253        N254   1.372       .  A
C253        C280   1.488   1_565  S
N254        C255   1.369       .  A
C255        N256   1.351       .  A
C255        C666   1.489       .  S
C257        N258   1.350       .  A
C257        N262   1.367   1_565  A
C257        C624   1.481       .  S
N258        C259   1.349       .  A
C259        N260   1.367       .  A
C259        C638   1.472       .  S
N260        C261   1.367       .  A
C261        N262   1.366   1_565  A
C261        C274   1.490   1_565  S
C263        N264   1.347       .  A
C263        N268   1.367       .  A
C263        C599   1.481       .  S
N264        C265   1.344       .  A
C265        N266   1.365       .  A
C265        C610   1.472       .  S
N266        C267   1.367       .  A
C267        N268   1.372       .  A
C267        C297   1.488       .  S
O269       Zr281   2.455   1_565  S
O269        C271   1.289   1_565  A
O270       Zr307   2.476       .  S
O270        C271   1.297       .  A
O272       Zr284   2.454       .  S
O272        C274   1.290       .  A
O273       Zr308   2.481   1_455  S
O273        C274   1.298       .  A
O275       Zr284   2.441       .  S
O275        C277   1.286       .  A
O276       Zr307   2.488   1_455  S
O276        C277   1.299       .  A
O278       Zr281   2.451   1_565  S
O278        C280   1.289   1_565  A
O279       Zr308   2.477       .  S
O279        C280   1.298       .  A
Zr281       O282   2.436   1_545  S
Zr281       O283   2.435       .  S
Zr281       O287   2.375       .  S
Zr281       O288   2.368       .  S
Zr281       O311   2.382       .  S
Zr281       O313   2.376       .  S
O282        H325   0.990       .  S
O283        H324   0.990       .  S
O283        H328   0.990   1_545  S
Zr284       O285   2.437   1_545  S
Zr284       O286   2.435       .  S
Zr284       O288   2.369   1_455  S
Zr284       O287   2.381   1_455  S
Zr284       O312   2.378       .  S
Zr284       O314   2.375       .  S
O285        H326   0.990       .  S
O285        H329   0.990       .  S
O286        H319   0.990       .  S
O287       Zr307   2.399       .  S
O288       Zr308   2.399       .  S
O288        H315   0.966       .  S
O289       Zr301   2.443       .  S
O289        C291   1.286       .  A
O290       Zr308   2.492       .  S
O290        C291   1.300       .  A
O292       Zr304   2.451       .  S
O292        C294   1.289       .  A
O293       Zr307   2.483   1_455  S
O293        C294   1.298       .  A
O295       Zr304   2.441       .  S
O295        C297   1.287       .  A
O296       Zr308   2.486   1_455  S
O296        C297   1.299       .  A
O298       Zr301   2.444       .  S
O298        C300   1.288       .  A
O299       Zr307   2.474       .  S
O299        C300   1.296       .  A
Zr301       O302   2.437       .  S
Zr301       O303   2.436       .  S
Zr301       O309   2.375       .  S
Zr301       O310   2.377       .  S
Zr301       O313   2.365       .  S
Zr301       O311   2.372       .  S
O302        H322   0.990       .  S
O302        H327   0.990       .  S
O303        H323   0.990       .  S
Zr304       O305   2.435       .  S
Zr304       O306   2.435       .  S
Zr304       O310   2.369   1_455  S
Zr304       O309   2.375   1_455  S
Zr304       O314   2.381       .  S
Zr304       O312   2.375       .  S
O305        H321   0.990   1_455  S
O306        H320   0.990       .  S
O306        H330   0.990       .  S
Zr307       O310   2.394       .  S
Zr307       O312   2.398   1_655  S
Zr307       O313   2.401       .  S
Zr308       O309   2.399       .  S
Zr308       O311   2.398       .  S
Zr308       O314   2.398   1_655  S
O309        H317   0.966       .  S
O312        H316   0.967       .  S
O313        H318   0.966       .  S
C331       C1131   1.475       .  S
C331        C332   1.388       .  A
C331        C336   1.408       .  A
C332        C333   1.389   1_655  A
C332        H351   1.088       .  S
C333       C1047   1.480       .  S
C333        C334   1.413       .  A
C334        C335   1.424   1_455  A
C334        C341   1.404       .  A
C335        C336   1.423       .  A
C335        C340   1.416       .  A
C336        C337   1.403       .  A
C337        C338   1.394       .  A
C337        H347   1.083       .  S
C338        C339   1.403       .  A
C338        H348   1.083       .  S
C339        C340   1.422       .  A
C339        C346   1.408       .  A
C340        C343   1.423   1_655  A
C341        C342   1.398       .  A
C341        H349   1.083       .  S
C342        C343   1.406       .  A
C342        H350   1.083       .  S
C343        C344   1.417       .  A
C344        C596   1.486       .  S
C344        C345   1.395   1_455  A
C345        C346   1.386       .  A
C345        H352   1.086       .  S
C346        C680   1.478       .  S
C353        C820   1.478       .  S
C353        C354   1.387       .  A
C353        C358   1.412       .  A
C354        C355   1.392       .  A
C354        H373   1.087       .  S
C355        C851   1.490       .  S
C355        C356   1.421       .  A
C356        C357   1.427       .  A
C356        C363   1.405       .  A
C357        C358   1.423       .  A
C357        C362   1.420       .  A
C358        C359   1.405       .  A
C359        C360   1.400       .  A
C359        H369   1.083       .  S
C360        C361   1.405       .  A
C360        H370   1.083       .  S
C361        C362   1.426       .  A
C361        C368   1.415       .  A
C362        C365   1.425       .  A
C363        C364   1.402       .  A
C363        H371   1.083   1_545  S
C364        C365   1.407       .  A
C364        H372   1.083   1_545  S
C365        C366   1.419       .  A
C366        C627   1.485       .  S
C366        C367   1.392       .  A
C367        C368   1.388       .  A
C367        H374   1.087       .  S
C368        C613   1.484       .  S
C375       C1075   1.481       .  S
C375        C376   1.389   1_556  A
C375        C380   1.414       .  A
C376        C377   1.388       .  A
C376        H395   1.087       .  S
C377       C1061   1.481       .  S
C377        C378   1.413       .  A
C378        C379   1.425       .  A
C378        C385   1.405       .  A
C379        C380   1.425   1_554  A
C379        C384   1.417       .  A
C380        C381   1.405       .  A
C381        C382   1.398       .  A
C381        H391   1.083       .  S
C382        C383   1.405       .  A
C382        H392   1.083       .  S
C383        C384   1.421   1_556  A
C383        C390   1.413       .  A
C384        C387   1.422       .  A
C385        C386   1.397       .  A
C385        H393   1.083       .  S
C386        C387   1.404       .  A
C386        H394   1.083       .  S
C387        C388   1.413       .  A
C388        C834   1.482       .  S
C388        C389   1.391       .  A
C389        C390   1.391   1_554  A
C389        H396   1.087       .  S
C390        C904   1.482       .  S
C397       C1016   1.478       .  S
C397        C398   1.389       .  A
C397        C402   1.412       .  A
C398        C399   1.393       .  A
C398        H417   1.086       .  S
C399        C946   1.486       .  S
C399        C400   1.415       .  A
C400        C401   1.422       .  A
C400        C407   1.405       .  A
C401        C402   1.422       .  A
C401        C406   1.417       .  A
C402        C403   1.405       .  A
C403        C404   1.397       .  A
C403        H413   1.083   1_545  S
C404        C405   1.404       .  A
C404        H414   1.083   1_545  S
C405        C406   1.425       .  A
C405        C412   1.411       .  A
C406        C409   1.425       .  A
C407        C408   1.398       .  A
C407        H415   1.083       .  S
C408        C409   1.405       .  A
C408        H416   1.083       .  S
C409        C410   1.413       .  A
C410        C697   1.480       .  S
C410        C411   1.393       .  A
C411        C412   1.386       .  A
C411        H418   1.087       .  S
C412        C655   1.477       .  S
C419       C1187   1.489       .  S
C419        C420   1.393       .  A
C419        C424   1.419       .  A
C420        C421   1.389       .  A
C420        H439   1.087       .  S
C421       C1156   1.482   1_655  S
C421        C422   1.414       .  A
C422        C423   1.425       .  A
C422        C429   1.404   1_655  A
C423        C424   1.425       .  A
C423        C428   1.421       .  A
C424        C425   1.405       .  A
C425        C426   1.400       .  A
C425        H435   1.083       .  S
C426        C427   1.406       .  A
C426        H436   1.083       .  S
C427        C428   1.425       .  A
C427        C434   1.419       .  A
C428        C431   1.425       .  A
C429        C430   1.397       .  A
C429        H437   1.083       .  S
C430        C431   1.405   1_455  A
C430        H438   1.083       .  S
C431        C432   1.415       .  A
C432        C641   1.485   1_655  S
C432        C433   1.389       .  A
C433        C434   1.394       .  A
C433        H440   1.086       .  S
C434        C669   1.492       .  S
C441        C879   1.488       .  S
C441        C442   1.391       .  A
C441        C446   1.421       .  A
C442        C443   1.387       .  A
C442        H461   1.088       .  S
C443        C921   1.481       .  S
C443        C444   1.413       .  A
C444        C445   1.426       .  A
C444        C451   1.404       .  A
C445        C446   1.427       .  A
C445        C450   1.422       .  A
C446        C447   1.406       .  A
C447        C448   1.402       .  A
C447        H457   1.083   1_545  S
C448        C449   1.406       .  A
C448        H458   1.083   1_545  S
C449        C450   1.425       .  A
C449        C456   1.422       .  A
C450        C453   1.424       .  A
C451        C452   1.398       .  A
C451        H459   1.083       .  S
C452        C453   1.405       .  A
C452        H460   1.083       .  S
C453        C454   1.413       .  A
C454        C725   1.480       .  S
C454        C455   1.389       .  A
C455        C456   1.394       .  A
C455        H462   1.086       .  S
C456        C792   1.490       .  S
C463       C1089   1.490   1_655  S
C463        C464   1.390       .  A
C463        C468   1.421       .  A
C464        C465   1.385       .  A
C464        H483   1.088       .  S
C465       C1117   1.478       .  S
C465        C466   1.410       .  A
C466        C467   1.426       .  A
C466        C473   1.404       .  A
C467        C468   1.428       .  A
C467        C472   1.420       .  A
C468        C469   1.406   1_655  A
C469        C470   1.403       .  A
C469        H479   1.083       .  S
C470        C471   1.407   1_455  A
C470        H480   1.083       .  S
C471        C472   1.424       .  A
C471        C478   1.424       .  A
C472        C475   1.421       .  A
C473        C474   1.397       .  A
C473        H481   1.083       .  S
C474        C475   1.405       .  A
C474        H482   1.083       .  S
C475        C476   1.410       .  A
C476        C736   1.478       .  S
C476        C477   1.392       .  A
C477        C478   1.398       .  A
C477        H484   1.086       .  S
C478        C711   1.495   1_655  S
C485       C1243   1.490   1_554  S
C485        C486   1.395       .  A
C485        C490   1.422   1_554  A
C486        C487   1.393       .  A
C486        H505   1.086       .  S
C487       C1170   1.489       .  S
C487        C488   1.418       .  A
C488        C489   1.424       .  A
C488        C495   1.405       .  A
C489        C490   1.424   1_554  A
C489        C494   1.424       .  A
C490        C491   1.407       .  A
C491        C492   1.403       .  A
C491        H501   1.083       .  S
C492        C493   1.406       .  A
C492        H502   1.083       .  S
C493        C494   1.428   1_556  A
C493        C500   1.421   1_556  A
C494        C497   1.426       .  A
C495        C496   1.400       .  A
C495        H503   1.083       .  S
C496        C497   1.405       .  A
C496        H504   1.083       .  S
C497        C498   1.417       .  A
C498        C865   1.486       .  S
C498        C499   1.390       .  A
C499        C500   1.388       .  A
C499        H506   1.087       .  S
C500        C893   1.488   1_554  S
C507       C1103   1.484   1_554  S
C507        C508   1.398       .  A
C507        C512   1.418       .  A
C508        C509   1.392       .  A
C508        H527   1.086       .  S
C509       C1145   1.487       .  S
C509        C510   1.415       .  A
C510        C511   1.424       .  A
C510        C517   1.403       .  A
C511        C512   1.418       .  A
C511        C516   1.419       .  A
C512        C513   1.408   1_554  A
C513        C514   1.403       .  A
C513        H523   1.083       .  S
C514        C515   1.405       .  A
C514        H524   1.083       .  S
C515        C516   1.429   1_556  A
C515        C522   1.421   1_556  A
C516        C519   1.421       .  A
C517        C518   1.397       .  A
C517        H525   1.083       .  S
C518        C519   1.405       .  A
C518        H526   1.083       .  S
C519        C520   1.407       .  A
C520        C935   1.471       .  S
C520        C521   1.388       .  A
C521        C522   1.388       .  A
C521        H528   1.088       .  S
C522        C963   1.488   1_554  S
C529       C1215   1.473       .  S
C529        C530   1.392       .  A
C529        C534   1.409       .  A
C530        C531   1.390   1_655  A
C530        H549   1.088       .  S
C531       C1254   1.480       .  S
C531        C532   1.412       .  A
C532        C533   1.424   1_455  A
C532        C539   1.403       .  A
C533        C534   1.421       .  A
C533        C538   1.416       .  A
C534        C535   1.405       .  A
C535        C536   1.396       .  A
C535        H545   1.083       .  S
C536        C537   1.404       .  A
C536        H546   1.083       .  S
C537        C538   1.424       .  A
C537        C544   1.412       .  A
C538        C541   1.422   1_655  A
C539        C540   1.398       .  A
C539        H547   1.083       .  S
C540        C541   1.406       .  A
C540        H548   1.083       .  S
C541        C542   1.412   1_455  A
C542        C806   1.478   1_655  S
C542        C543   1.389       .  A
C543        C544   1.389       .  A
C543        H550   1.087       .  S
C544        C767   1.482       .  S
C551       C1005   1.477       .  S
C551        C552   1.387       .  A
C551        C556   1.409       .  A
C552        C553   1.388       .  A
C552        H571   1.087       .  S
C553        C977   1.486       .  S
C553        C554   1.419       .  A
C554        C555   1.428       .  A
C554        C561   1.405       .  A
C555        C556   1.425       .  A
C555        C560   1.419       .  A
C556        C557   1.404       .  A
C557        C558   1.395       .  A
C557        H567   1.083   1_545  S
C558        C559   1.404       .  A
C558        H568   1.083   1_545  S
C559        C560   1.421       .  A
C559        C566   1.410       .  A
C560        C563   1.422       .  A
C561        C562   1.401       .  A
C561        H569   1.083       .  S
C562        C563   1.407       .  A
C562        H570   1.083       .  S
C563        C564   1.421       .  A
C564        C750   1.492       .  S
C564        C565   1.397       .  A
C565        C566   1.393       .  A
C565        H572   1.085       .  S
C566        C778   1.478       .  S
C573       C1229   1.487   1_554  S
C573        C574   1.392       .  A
C573        C578   1.420       .  A
C574        C575   1.389       .  A
C574        H593   1.087       .  S
C575       C1201   1.477       .  S
C575        C576   1.409       .  A
C576        C577   1.422       .  A
C576        C583   1.404       .  A
C577        C578   1.426       .  A
C577        C582   1.419       .  A
C578        C579   1.406   1_554  A
C579        C580   1.399       .  A
C579        H589   1.083       .  S
C580        C581   1.405       .  A
C580        H590   1.083       .  S
C581        C582   1.422   1_556  A
C581        C588   1.413       .  A
C582        C585   1.425       .  A
C583        C584   1.397       .  A
C583        H591   1.083       .  S
C584        C585   1.405       .  A
C584        H592   1.083       .  S
C585        C586   1.417       .  A
C586       C1030   1.484       .  S
C586        C587   1.389       .  A
C587        C588   1.390   1_554  A
C587        H594   1.086       .  S
C588        C991   1.483       .  S
C595        C596   1.413       .  A
C595        C600   1.405       .  A
C595        H602   1.084       .  S
C596        C597   1.410       .  A
C597        C598   1.393       .  A
C597        N604   1.430       .  S
C598        C599   1.407       .  A
C598        H603   1.084       .  S
C599        C600   1.407       .  A
C600        N601   1.428       .  S
N601        O605   1.262       .  A
N601        O606   1.262       .  A
N604        O608   1.261       .  A
N604        O607   1.262       .  A
C609        C610   1.404       .  A
C609        C614   1.400       .  A
C609        H616   1.084       .  S
C610        C611   1.403       .  A
C611        C612   1.403       .  A
C611        N618   1.429       .  S
C612        C613   1.413       .  A
C612        H617   1.084       .  S
C613        C614   1.407       .  A
C614        N615   1.428       .  S
N615        O619   1.262       .  A
N615        O620   1.262       .  A
N618        O622   1.262       .  A
N618        O621   1.262       .  A
C623        C624   1.401   1_545  A
C623        C628   1.402       .  A
C623        H630   1.084       .  S
C624        C625   1.416       .  A
C625        C626   1.399       .  A
C625        N632   1.428       .  S
C626        C627   1.400   1_565  A
C626        H631   1.084       .  S
C627        C628   1.417       .  A
C628        N629   1.429       .  S
N629        O633   1.262       .  A
N629        O634   1.262       .  A
N632        O636   1.262       .  A
N632        O635   1.262       .  A
C637        C638   1.400       .  A
C637        C642   1.401       .  A
C637        H644   1.084       .  S
C638        C639   1.410       .  A
C639        C640   1.402       .  A
C639        N646   1.428       .  S
C640        C641   1.403       .  A
C640        H645   1.084       .  S
C641        C642   1.414       .  A
C642        N643   1.429       .  S
N643        O647   1.262       .  A
N643        O648   1.262       .  A
N646        O650   1.262       .  A
N646        O649   1.261       .  A
C651        C652   1.402       .  A
C651        C656   1.398   1_565  A
C651        H658   1.084       .  S
C652        C653   1.406   1_565  A
C653        C654   1.402       .  A
C653        N660   1.428       .  S
C654        C655   1.407       .  A
C654        H659   1.084       .  S
C655        C656   1.406       .  A
C656        N657   1.428   1_545  S
N657        O661   1.262   1_565  A
N657        O662   1.262       .  A
N660        O664   1.262       .  A
N660        O663   1.262       .  A
C665        C666   1.407       .  A
C665        C670   1.397       .  A
C665        H672   1.084       .  S
C666        C667   1.410       .  A
C667        C668   1.407       .  A
C667        N674   1.428       .  S
C668        C669   1.413       .  A
C668        H673   1.084       .  S
C669        C670   1.410       .  A
C670        N671   1.429       .  S
N671        O675   1.262       .  A
N671        O676   1.262       .  A
N674        O678   1.262       .  A
N674        O677   1.262       .  A
C679        C680   1.404       .  A
C679        C684   1.401       .  A
C679        H686   1.084       .  S
C680        C681   1.411       .  A
C681        C682   1.397       .  A
C681        N688   1.428       .  S
C682        C683   1.398       .  A
C682        H687   1.084       .  S
C683        C684   1.409       .  A
C684        N685   1.428       .  S
N685        O689   1.262       .  A
N685        O690   1.262       .  A
N688        O692   1.262       .  A
N688        O691   1.261       .  A
C693        C694   1.403       .  A
C693        C698   1.404       .  A
C693        H700   1.083       .  S
C694        C695   1.419       .  A
C695        C696   1.400       .  A
C695        N702   1.430       .  S
C696        C697   1.398       .  A
C696        H701   1.084       .  S
C697        C698   1.411       .  A
C698        N699   1.429       .  S
N699        O703   1.262       .  A
N699        O704   1.262       .  A
N702        O706   1.262       .  A
N702        O705   1.262       .  A
C707        C708   1.400       .  A
C707        C712   1.406       .  A
C707        H714   1.084       .  S
C708        C709   1.417       .  A
C709        C710   1.400       .  A
C709        N716   1.429       .  S
C710        C711   1.402       .  A
C710        H715   1.084       .  S
C711        C712   1.419       .  A
C712        N713   1.429       .  S
N713        O717   1.262       .  A
N713        O718   1.262   1_455  A
N716        O720   1.262       .  A
N716        O719   1.262       .  A
C721        C722   1.400       .  A
C721        C726   1.401       .  A
C721        H728   1.084       .  S
C722        C723   1.403       .  A
C723        C724   1.401       .  A
C723        N730   1.429       .  S
C724        C725   1.408       .  A
C724        H729   1.084       .  S
C725        C726   1.411       .  A
C726        N727   1.429       .  S
N727        O731   1.262       .  A
N727        O732   1.262       .  A
N730        O734   1.262       .  A
N730        O733   1.262       .  A
C735        C736   1.407       .  A
C735        C740   1.398       .  A
C735        H742   1.085       .  S
C736        C737   1.406       .  A
C737        C738   1.401       .  A
C737        N744   1.428       .  S
C738        C739   1.406       .  A
C738        H743   1.084       .  S
C739        C740   1.404       .  A
C740        N741   1.428       .  S
N741        O745   1.262       .  A
N741        O746   1.262       .  A
N744        O748   1.262       .  A
N744        O747   1.262       .  A
C749        C750   1.403       .  A
C749        C754   1.399       .  A
C749        H756   1.084       .  S
C750        C751   1.417       .  A
C751        C752   1.404       .  A
C751        N758   1.429       .  S
C752        C753   1.401       .  A
C752        H757   1.084       .  S
C753        C754   1.413       .  A
C754        N755   1.429       .  S
N755        O759   1.262       .  A
N755        O760   1.262       .  A
N758        O762   1.262       .  A
N758        O761   1.262       .  A
C763        C764   1.400       .  A
C763        C768   1.397       .  A
C763        H770   1.084       .  S
C764        C765   1.403       .  A
C765        C766   1.401       .  A
C765        N772   1.429       .  S
C766        C767   1.411       .  A
C766        H771   1.084       .  S
C767        C768   1.412       .  A
C768        N769   1.429       .  S
N769        O773   1.261       .  A
N769        O774   1.261       .  A
N772        O776   1.262       .  A
N772        O775   1.262       .  A
C777        C778   1.404       .  A
C777        C782   1.398       .  A
C777        H784   1.084       .  S
C778        C779   1.409   1_545  A
C779        C780   1.402       .  A
C779        N786   1.428       .  S
C780        C781   1.403       .  A
C780        H785   1.084       .  S
C781        C782   1.406   1_565  A
C782        N783   1.428       .  S
N783        O787   1.262       .  A
N783        O788   1.262   1_545  A
N786        O790   1.261   1_565  A
N786        O789   1.262       .  A
C791        C792   1.403   1_565  A
C791        C796   1.402       .  A
C791        H798   1.084       .  S
C792        C793   1.417       .  A
C793        C794   1.402   1_545  A
C793        N800   1.429       .  S
C794        C795   1.398       .  A
C794        H799   1.084   1_565  S
C795        C796   1.415       .  A
C796        N797   1.430       .  S
N797        O801   1.262       .  A
N797        O802   1.262       .  A
N800        O804   1.262       .  A
N800        O803   1.262       .  A
C805        C806   1.407       .  A
C805        C810   1.401       .  A
C805        H812   1.084       .  S
C806        C807   1.410       .  A
C807        C808   1.396       .  A
C807        N814   1.428       .  S
C808        C809   1.400       .  A
C808        H813   1.084       .  S
C809        C810   1.407       .  A
C810        N811   1.428       .  S
N811        O815   1.262       .  A
N811        O816   1.262       .  A
N814        O818   1.261       .  A
N814        O817   1.261       .  A
C819        C820   1.410       .  A
C819        C824   1.398       .  A
C819        H826   1.084       .  S
C820        C821   1.409       .  A
C821        C822   1.401       .  A
C821        N828   1.428       .  S
C822        C823   1.402       .  A
C822        H827   1.084       .  S
C823        C824   1.401       .  A
C824        N825   1.429       .  S
N825        O829   1.262       .  A
N825        O830   1.262       .  A
N828        O832   1.262       .  A
N828        O831   1.262       .  A
C833        C834   1.400       .  A
C833        C838   1.396       .  A
C833        H840   1.084       .  S
C834        C835   1.412       .  A
C835        C836   1.408       .  A
C835        N842   1.429       .  S
C836        C837   1.404       .  A
C836        H841   1.083       .  S
C837        C838   1.413       .  A
C838        N839   1.429       .  S
N839        O843   1.262       .  A
N839        O844   1.262       .  A
N842        O846   1.262       .  A
N842        O845   1.262       .  A
C847        C848   1.407       .  A
C847        C852   1.400       .  A
C847        H854   1.084       .  S
C848        C849   1.409   1_565  A
C849        C850   1.408       .  A
C849        N856   1.427       .  S
C850        C851   1.412       .  A
C850        H855   1.084       .  S
C851        C852   1.411   1_545  A
C852        N853   1.429       .  S
N853        O857   1.262   1_565  A
N853        O858   1.262       .  A
N856        O860   1.262   1_545  A
N856        O859   1.262       .  A
C861        C862   1.404       .  A
C861        C866   1.403       .  A
C861        H868   1.084       .  S
C862        C863   1.405       .  A
C863        C864   1.401       .  A
C863        N870   1.428       .  S
C864        C865   1.409       .  A
C864        H869   1.084       .  S
C865        C866   1.412       .  A
C866        N867   1.429       .  S
N867        O871   1.262       .  A
N867        O872   1.262       .  A
N870        O874   1.262       .  A
N870        O873   1.262       .  A
C875        C876   1.411       .  A
C875        C880   1.403       .  A
C875        H882   1.083       .  S
C876        C877   1.411       .  A
C877        C878   1.409   1_565  A
C877        N884   1.427       .  S
C878        C879   1.410       .  A
C878        H883   1.084       .  S
C879        C880   1.406   1_545  A
C880        N881   1.429       .  S
N881        O885   1.262   1_565  A
N881        O886   1.262       .  A
N884        O888   1.261   1_565  A
N884        O887   1.262       .  A
C889        C890   1.400       .  A
C889        C894   1.405       .  A
C889        H896   1.084       .  S
C890        C891   1.412       .  A
C891        C892   1.402       .  A
C891        N898   1.428       .  S
C892        C893   1.402       .  A
C892        H897   1.084       .  S
C893        C894   1.419       .  A
C894        N895   1.429       .  S
N895        O899   1.262   1_556  A
N895        O900   1.262       .  A
N898        O902   1.262       .  A
N898        O901   1.262       .  A
C903        C904   1.408       .  A
C903        C908   1.402       .  A
C903        H910   1.084       .  S
C904        C905   1.413       .  A
C905        C906   1.397       .  A
C905        N912   1.430       .  S
C906        C907   1.402       .  A
C906        H911   1.084       .  S
C907        C908   1.405       .  A
C908        N909   1.428       .  S
N909        O913   1.262       .  A
N909        O914   1.262       .  A
N912        O916   1.262   1_556  A
N912        O915   1.262       .  A
C917        C918   1.397       .  A
C917        C922   1.398       .  A
C917        H924   1.084       .  S
C918        C919   1.405       .  A
C919        C920   1.404       .  A
C919        N926   1.430       .  S
C920        C921   1.408       .  A
C920        H925   1.084       .  S
C921        C922   1.411       .  A
C922        N923   1.428       .  S
N923        O927   1.262       .  A
N923        O928   1.262       .  A
N926        O930   1.262       .  A
N926        O929   1.262       .  A
C931        C932   1.403       .  A
C931        C936   1.401       .  A
C931        H938   1.084       .  S
C932        C933   1.409       .  A
C933        C934   1.398       .  A
C933        N940   1.428       .  S
C934        C935   1.401       .  A
C934        H939   1.084       .  S
C935        C936   1.407       .  A
C936        N937   1.429       .  S
N937        O941   1.262       .  A
N937        O942   1.262       .  A
N940        O944   1.262       .  A
N940        O943   1.262       .  A
C945        C946   1.411       .  A
C945        C950   1.405       .  A
C945        H952   1.084       .  S
C946        C947   1.411       .  A
C947        C948   1.395       .  A
C947        N954   1.430       .  S
C948        C949   1.404       .  A
C948        H953   1.084       .  S
C949        C950   1.408       .  A
C950        N951   1.428       .  S
N951        O955   1.262       .  A
N951        O956   1.262       .  A
N954        O958   1.262       .  A
N954        O957   1.262       .  A
C959        C960   1.401       .  A
C959        C964   1.401       .  A
C959        H966   1.084       .  S
C960        C961   1.405       .  A
C961        C962   1.405       .  A
C961        N968   1.429       .  S
C962        C963   1.413       .  A
C962        H967   1.084       .  S
C963        C964   1.413       .  A
C964        N965   1.428       .  S
N965        O969   1.262       .  A
N965        O970   1.262       .  A
N968        O972   1.262       .  A
N968        O971   1.262       .  A
C973        C974   1.399       .  A
C973        C978   1.403       .  A
C973        H980   1.084       .  S
C974        C975   1.419       .  A
C975        C976   1.402       .  A
C975        N982   1.429       .  S
C976        C977   1.399       .  A
C976        H981   1.084       .  S
C977        C978   1.419       .  A
C978        N979   1.429       .  S
N979        O983   1.262       .  A
N979        O984   1.262       .  A
N982        O986   1.262       .  A
N982        O985   1.262       .  A
C987        C988   1.402       .  A
C987        C992   1.397       .  A
C987        H994   1.084       .  S
C988        C989   1.407       .  A
C989        C990   1.403       .  A
C989        N996   1.428       .  S
C990        C991   1.410       .  A
C990        H995   1.084       .  S
C991        C992   1.411       .  A
C992        N993   1.429       .  S
N993        O997   1.262       .  A
N993        O998   1.262       .  A
N996       O1000   1.262       .  A
N996        O999   1.262       .  A
C1001      C1002   1.401       .  A
C1001      C1006   1.400   1_565  A
C1001      H1008   1.084       .  S
C1002      C1003   1.404       .  A
C1003      C1004   1.395   1_565  A
C1003      N1010   1.429   1_565  S
C1004      C1005   1.406       .  A
C1004      H1009   1.085       .  S
C1005      C1006   1.411       .  A
C1006      N1007   1.429       .  S
N1007      O1011   1.262       .  A
N1007      O1012   1.262   1_545  A
N1010      O1014   1.261   1_545  A
N1010      O1013   1.262       .  A
C1015      C1016   1.407       .  A
C1015      C1020   1.400       .  A
C1015      H1022   1.084       .  S
C1016      C1017   1.413       .  A
C1017      C1018   1.397   1_545  A
C1017      N1024   1.429       .  S
C1018      C1019   1.397       .  A
C1018      H1023   1.084       .  S
C1019      C1020   1.402   1_565  A
C1020      N1021   1.429       .  S
N1021      O1025   1.262       .  A
N1021      O1026   1.261   1_545  A
N1024      O1028   1.261   1_545  A
N1024      O1027   1.262       .  A
C1029      C1030   1.402       .  A
C1029      C1034   1.398       .  A
C1029      H1036   1.084       .  S
C1030      C1031   1.418       .  A
C1031      C1032   1.401       .  A
C1031      N1038   1.430       .  S
C1032      C1033   1.398       .  A
C1032      H1037   1.084       .  S
C1033      C1034   1.412       .  A
C1034      N1035   1.428       .  S
N1035      O1039   1.262       .  A
N1035      O1040   1.262       .  A
N1038      O1042   1.262       .  A
N1038      O1041   1.262       .  A
C1043      C1044   1.406       .  A
C1043      C1048   1.404       .  A
C1043      H1050   1.084       .  S
C1044      C1045   1.408       .  A
C1045      C1046   1.401       .  A
C1045      N1052   1.427       .  S
C1046      C1047   1.404       .  A
C1046      H1051   1.084       .  S
C1047      C1048   1.411       .  A
C1048      N1049   1.431       .  S
N1049      O1053   1.262       .  A
N1049      O1054   1.262       .  A
N1052      O1056   1.261       .  A
N1052      O1055   1.262       .  A
C1057      C1058   1.404       .  A
C1057      C1062   1.400       .  A
C1057      H1064   1.084       .  S
C1058      C1059   1.408       .  A
C1059      C1060   1.402       .  A
C1059      N1066   1.428       .  S
C1060      C1061   1.408       .  A
C1060      H1065   1.084       .  S
C1061      C1062   1.408       .  A
C1062      N1063   1.429       .  S
N1063      O1067   1.261       .  A
N1063      O1068   1.262       .  A
N1066      O1070   1.262       .  A
N1066      O1069   1.262       .  A
C1071      C1072   1.403       .  A
C1071      C1076   1.401       .  A
C1071      H1078   1.084       .  S
C1072      C1073   1.405       .  A
C1073      C1074   1.400       .  A
C1073      N1080   1.428       .  S
C1074      C1075   1.408       .  A
C1074      H1079   1.084       .  S
C1075      C1076   1.409       .  A
C1076      N1077   1.429       .  S
N1077      O1081   1.262       .  A
N1077      O1082   1.262       .  A
N1080      O1084   1.262       .  A
N1080      O1083   1.262       .  A
C1085      C1086   1.409       .  A
C1085      C1090   1.401       .  A
C1085      H1092   1.084       .  S
C1086      C1087   1.409       .  A
C1087      C1088   1.406       .  A
C1087      N1094   1.428       .  S
C1088      C1089   1.413       .  A
C1088      H1093   1.084       .  S
C1089      C1090   1.409       .  A
C1090      N1091   1.429       .  S
N1091      O1095   1.262       .  A
N1091      O1096   1.262       .  A
N1094      O1098   1.262   1_455  A
N1094      O1097   1.262       .  A
C1099      C1100   1.397       .  A
C1099      C1104   1.401       .  A
C1099      H1106   1.084       .  S
C1100      C1101   1.409       .  A
C1101      C1102   1.397       .  A
C1101      N1108   1.432       .  S
C1102      C1103   1.405       .  A
C1102      H1107   1.084       .  S
C1103      C1104   1.415       .  A
C1104      N1105   1.428       .  S
N1105      O1109   1.262       .  A
N1105      O1110   1.262       .  A
N1108      O1112   1.262       .  A
N1108      O1111   1.262       .  A
C1113      C1114   1.401       .  A
C1113      C1118   1.400       .  A
C1113      H1120   1.084       .  S
C1114      C1115   1.402       .  A
C1115      C1116   1.400       .  A
C1115      N1122   1.428       .  S
C1116      C1117   1.410       .  A
C1116      H1121   1.084       .  S
C1117      C1118   1.411       .  A
C1118      N1119   1.428       .  S
N1119      O1123   1.262       .  A
N1119      O1124   1.262       .  A
N1122      O1126   1.262       .  A
N1122      O1125   1.262       .  A
C1127      C1128   1.404       .  A
C1127      C1132   1.404       .  A
C1127      H1134   1.084       .  S
C1128      C1129   1.411       .  A
C1129      C1130   1.399       .  A
C1129      N1136   1.427       .  S
C1130      C1131   1.399       .  A
C1130      H1135   1.084       .  S
C1131      C1132   1.407       .  A
C1132      N1133   1.430       .  S
N1133      O1137   1.262       .  A
N1133      O1138   1.262       .  A
N1136      O1140   1.262       .  A
N1136      O1139   1.262       .  A
C1141      C1142   1.401       .  A
C1141      C1146   1.406       .  A
C1141      H1148   1.084       .  S
C1142      C1143   1.405       .  A
C1143      C1144   1.400       .  A
C1143      N1150   1.428       .  S
C1144      C1145   1.406       .  A
C1144      H1149   1.084       .  S
C1145      C1146   1.414       .  A
C1146      N1147   1.428       .  S
N1147      O1151   1.262       .  A
N1147      O1152   1.262       .  A
N1150      O1154   1.262       .  A
N1150      O1153   1.261       .  A
C1155      C1156   1.404       .  A
C1155      C1160   1.401       .  A
C1155      H1162   1.084       .  S
C1156      C1157   1.414       .  A
C1157      C1158   1.400       .  A
C1157      N1164   1.429       .  S
C1158      C1159   1.399       .  A
C1158      H1163   1.084       .  S
C1159      C1160   1.408       .  A
C1160      N1161   1.428       .  S
N1161      O1165   1.262       .  A
N1161      O1166   1.262       .  A
N1164      O1168   1.262       .  A
N1164      O1167   1.262       .  A
C1169      C1170   1.407       .  A
C1169      C1174   1.403       .  A
C1169      H1176   1.084       .  S
C1170      C1171   1.415       .  A
C1171      C1172   1.401       .  A
C1171      N1178   1.428       .  S
C1172      C1173   1.399       .  A
C1172      H1177   1.084       .  S
C1173      C1174   1.407       .  A
C1174      N1175   1.429       .  S
N1175      O1179   1.262       .  A
N1175      O1180   1.262       .  A
N1178      O1182   1.262       .  A
N1178      O1181   1.262       .  A
C1183      C1184   1.405       .  A
C1183      C1188   1.400       .  A
C1183      H1190   1.084       .  S
C1184      C1185   1.409       .  A
C1185      C1186   1.405       .  A
C1185      N1192   1.428       .  S
C1186      C1187   1.411       .  A
C1186      H1191   1.084       .  S
C1187      C1188   1.411       .  A
C1188      N1189   1.429       .  S
N1189      O1193   1.262       .  A
N1189      O1194   1.262       .  A
N1192      O1196   1.262       .  A
N1192      O1195   1.262       .  A
C1197      C1198   1.404       .  A
C1197      C1202   1.402       .  A
C1197      H1204   1.084       .  S
C1198      C1199   1.410       .  A
C1199      C1200   1.401       .  A
C1199      N1206   1.428       .  S
C1200      C1201   1.403       .  A
C1200      H1205   1.084       .  S
C1201      C1202   1.407       .  A
C1202      N1203   1.428       .  S
N1203      O1207   1.262       .  A
N1203      O1208   1.262       .  A
N1206      O1210   1.262       .  A
N1206      O1209   1.262       .  A
C1211      C1212   1.405       .  A
C1211      C1216   1.404       .  A
C1211      H1218   1.084       .  S
C1212      C1213   1.408       .  A
C1213      C1214   1.395       .  A
C1213      N1220   1.428       .  S
C1214      C1215   1.400       .  A
C1214      H1219   1.085       .  S
C1215      C1216   1.407       .  A
C1216      N1217   1.429       .  S
N1217      O1221   1.262       .  A
N1217      O1222   1.262       .  A
N1220      O1224   1.261       .  A
N1220      O1223   1.262       .  A
C1225      C1226   1.400       .  A
C1225      C1230   1.402       .  A
C1225      H1232   1.084       .  S
C1226      C1227   1.413       .  A
C1227      C1228   1.400       .  A
C1227      N1234   1.427       .  S
C1228      C1229   1.401       .  A
C1228      H1233   1.084       .  S
C1229      C1230   1.417       .  A
C1230      N1231   1.429       .  S
N1231      O1235   1.262       .  A
N1231      O1236   1.262   1_556  A
N1234      O1238   1.262       .  A
N1234      O1237   1.261       .  A
C1239      C1240   1.402       .  A
C1239      C1244   1.407       .  A
C1239      H1246   1.084       .  S
C1240      C1241   1.412       .  A
C1241      C1242   1.401       .  A
C1241      N1248   1.428       .  S
C1242      C1243   1.402       .  A
C1242      H1247   1.084       .  S
C1243      C1244   1.417       .  A
C1244      N1245   1.429       .  S
N1245      O1249   1.262       .  A
N1245      O1250   1.262       .  A
N1248      O1252   1.262       .  A
N1248      O1251   1.262       .  A
C1253      C1254   1.406       .  A
C1253      C1258   1.401       .  A
C1253      H1260   1.084       .  S
C1254      C1255   1.408       .  A
C1255      C1256   1.405       .  A
C1255      N1262   1.429       .  S
C1256      C1257   1.404       .  A
C1256      H1261   1.084       .  S
C1257      C1258   1.405       .  A
C1258      N1259   1.429       .  S
N1259      O1263   1.261       .  A
N1259      O1264   1.262       .  A
N1262      O1266   1.262       .  A
N1262      O1265   1.262       .  A
