geometry optimzed in LAMMPS
_audit_creation_date              2020-12-01 
_audit_creation_method            'lammps2cif' 
_symmetry_space_group_name_H-M    'P1' 
_symmetry_Int_Tables_number       1 
_symmetry_cell_setting            triclinic 
loop_ 
_symmetry_equiv_pos_as_xyz 
  x,y,z 
_cell_length_a                    36.24851505 
_cell_length_b                    36.24266293054976 
_cell_length_c                    43.217843911181234 
_cell_angle_alpha                 90.03699520492229 
_cell_angle_beta                  89.95941190586292 
_cell_angle_gamma                 120.00580000577014 
loop_ 
_atom_site_label 
_atom_site_type_symbol 
_atom_site_fract_x 
_atom_site_fract_y 
_atom_site_fract_z 
_atom_site_charge 
O1          O  0.81519327  0.63761615  0.37790001    -0.74200
O2          O  0.84949076  0.64497383  0.28894128    -0.75200
O3          O  0.89409606  0.67083141  0.34662668    -0.63800
O4          O  0.77150700  0.61236510  0.32033201    -0.72200
O5          O  0.77459253  0.67484295  0.31641338    -0.71800
O6          O  0.89721648  0.73331602  0.34271185    -0.63000
O7          O  0.85331297  0.70782222  0.28497066    -0.75500
O8          O  0.81893269  0.70043714  0.37411066    -0.74300
Cu9        Cu  0.83249434  0.63930916  0.33360056     1.04600
Cu10       Cu  0.83614131  0.70629137  0.32940925     1.04300
C11         C  0.81252474  0.66823163  0.39027046     0.92000
C12         C  0.85559648  0.67694740  0.27264242     0.91100
C13         C  0.91488878  0.71139812  0.34938159     0.83300
C14         C  0.75384521  0.63428816  0.31366823     0.89500
O15         O  0.22805798  0.90072358  0.42976704    -0.74200
O16         O  0.10558458  0.83713131  0.40301374    -0.75200
O17         O  0.14904803  0.85481051  0.46079633    -0.63800
O18         O  0.18399382  0.88266101  0.37179016    -0.72200
O19         O  0.18782808  0.82366348  0.36762237    -0.71800
O20         O  0.15283305  0.79579039  0.45652612    -0.63000
O21         O  0.10862173  0.77775815  0.39870436    -0.75500
O22         O  0.23126607  0.84143310  0.42554290    -0.74300
Cu23       Cu  0.16658509  0.87089512  0.41648073     1.04600
Cu24       Cu  0.17022716  0.80759869  0.41191793     1.04300
C25         C  0.24880859  0.88092755  0.43256700     0.92000
C26         C  0.08784491  0.79757590  0.39618484     0.91100
C27         C  0.14655052  0.82147858  0.47294128     0.83300
C28         C  0.19038693  0.85698870  0.35542693     0.89500
O29         O  0.51516552  0.97544255  0.45627650    -0.74200
O30         O  0.48387632  0.97552024  0.04554576    -0.75200
O31         O  0.43826383  0.94589294  0.48878918    -0.63800
O32         O  0.56162118  0.00520990  0.01321511    -0.72200
O33         O  0.56558644  0.06782859  0.00709799    -0.71800
O34         O  0.44203751  0.00840697  0.48256738    -0.63000
O35         O  0.48872651  0.03859699  0.03935183    -0.75500
O36         O  0.51996163  0.03852511  0.45040733    -0.74300
Cu37       Cu  0.49961618  0.97335031  0.50121172     1.04600
Cu38       Cu  0.50416675  0.04047155  0.49459268     1.04300
C39         C  0.52157026  0.00678275  0.43907854     0.92000
C40         C  0.48248924  0.00749355  0.05670672     0.91100
C41         C  0.42083394  0.96769307  0.48114813     0.83300
C42         C  0.58289510  0.04589110  0.01472781     0.89500
O43         O  0.18269019  0.30975558  0.12407450    -0.74200
O44         O  0.14906166  0.30417969  0.21316801    -0.75200
O45         O  0.10481332  0.27783977  0.15566587    -0.63800
O46         O  0.22741744  0.33621635  0.18157982    -0.72200
O47         O  0.23082855  0.39881066  0.17723762    -0.71800
O48         O  0.10828971  0.34043195  0.15109734    -0.63000
O49         O  0.15304496  0.36705155  0.20871973    -0.75500
O50         O  0.18707066  0.37283019  0.11972133    -0.74300
Cu51       Cu  0.16586453  0.30482258  0.16878969     1.04600
Cu52       Cu  0.16989191  0.37193375  0.16401668     1.04300
C53         C  0.18929862  0.34180284  0.10764658     0.92000
C54         C  0.14695628  0.33527721  0.22526237     0.91100
C55         C  0.08734148  0.29983057  0.14867612     0.83300
C56         C  0.24830397  0.37678741  0.18411424     0.89500
O57         O  0.85427510  0.15754074  0.03587590    -0.74200
O58         O  0.81911966  0.12909780  0.12491983    -0.75200
O59         O  0.77510439  0.11143694  0.06679581    -0.63800
O60         O  0.89747282  0.17465519  0.09375359    -0.72200
O61         O  0.89448412  0.23404597  0.09821940    -0.71800
O62         O  0.77203055  0.17077139  0.07131338    -0.63000
O63         O  0.81547596  0.18818222  0.12921784    -0.75500
O64         O  0.85043102  0.21650810  0.04041157    -0.74300
Cu65       Cu  0.83655856  0.14109099  0.08017805     1.04600
Cu66       Cu  0.83300340  0.20441497  0.08497066     1.04300
C67         C  0.85682884  0.19099109  0.02389124     0.92000
C68         C  0.81297123  0.15486646  0.14137958     0.91100
C69         C  0.75445206  0.13134889  0.06408811     0.83300
C70         C  0.91516378  0.21414279  0.10076540     0.89500
O71         O  0.43752404  0.50201844  0.23914003    -0.74200
O72         O  0.56037148  0.56717768  0.26409218    -0.75200
O73         O  0.51444899  0.54959679  0.20694318    -0.63800
O74         O  0.48250782  0.51901481  0.29602367    -0.72200
O75         O  0.48783718  0.46097291  0.29036582    -0.71800
O76         O  0.51956049  0.49143318  0.20140169    -0.63000
O77         O  0.56472078  0.50867773  0.25827463    -0.75500
O78         O  0.44172925  0.44342687  0.23339385    -0.74300
Cu79       Cu  0.49857475  0.53649249  0.25177641     1.04600
Cu80       Cu  0.50359429  0.47409245  0.24562197     1.04300
C81         C  0.42038087  0.46272845  0.23170645     0.92000
C82         C  0.58177111  0.54793938  0.26581220     0.91100
C83         C  0.52099663  0.52460553  0.18990464     0.83300
C84         C  0.48123357  0.48586984  0.30744186     0.89500
O85         O  0.21360656  0.37097055  0.45827640    -0.74200
O86         O  0.18324114  0.37259134  0.36905188    -0.75200
O87         O  0.16678142  0.40131747  0.42601724    -0.63800
O88         O  0.23053335  0.34194717  0.40104688    -0.72200
O89         O  0.17165525  0.27942005  0.40687026    -0.71800
O90         O  0.10792649  0.33880368  0.43192814    -0.63000
O91         O  0.12481994  0.30956531  0.37491868    -0.75500
O92         O  0.15512808  0.30794882  0.46381208    -0.74300
Cu93       Cu  0.20061408  0.37388528  0.41338893     1.04600
Cu94       Cu  0.13783690  0.30681248  0.41963517     1.04300
C95         C  0.18848685  0.33948112  0.47529836     0.92000
C96         C  0.14992304  0.34078779  0.35772581     0.91100
C97         C  0.12748132  0.37948916  0.43350616     0.83300
C98         C  0.21088436  0.30128533  0.39919336     0.89500
O99         O  0.36487452  0.21811901  0.28866002    -0.74200
O100        O  0.36601448  0.18659566  0.37752581    -0.75200
O101        O  0.39443771  0.17051005  0.32044937    -0.63800
O102        O  0.33595400  0.23471356  0.34606300    -0.72200
O103        O  0.27318725  0.17614811  0.34018296    -0.71800
O104        O  0.33184399  0.11184165  0.31425687    -0.63000
O105        O  0.30290666  0.12833525  0.37167319    -0.75500
O106        O  0.30159078  0.16008163  0.28272677    -0.74300
Cu107      Cu  0.36743851  0.20452147  0.33339347     1.04600
Cu108      Cu  0.30018629  0.14205449  0.32693928     1.04300
C109        C  0.33351674  0.19333345  0.27143450     0.92000
C110        C  0.33435092  0.15315259  0.38883603     0.91100
C111        C  0.37253584  0.13129376  0.31277064     0.83300
C112        C  0.29532631  0.21530434  0.34803269     0.89500
O113        O  0.03614323  0.52253367  0.04574278    -0.74200
O114        O  0.03272830  0.55217874  0.45663545    -0.75200
O115        O  0.00472495  0.56949682  0.01413735    -0.63800
O116        O  0.06374036  0.50560715  0.48829302    -0.72200
O117        O  0.00118071  0.44655750  0.48320923    -0.71800
O118        O  0.94226550  0.51043407  0.00869238    -0.63000
O119        O  0.96983825  0.49343839  0.45147955    -0.75500
O120        O  0.97308560  0.46402573  0.04047596    -0.74300
Cu121      Cu  0.03651727  0.53952563  0.50140534     1.04600
Cu122      Cu  0.96946378  0.47657186  0.49574769     1.04300
C123        C  0.00459024  0.48929638  0.05739466     0.92000
C124        C  0.00115016  0.52681586  0.43979210     0.91100
C125        C  0.96408342  0.54973549  0.01618730     0.83300
C126        C  0.04179616  0.46621083  0.48104074     0.89500
O127        O  0.70126297  0.85369786  0.21133432    -0.74200
O128        O  0.69818218  0.88359840  0.12238378    -0.75200
O129        O  0.67112636  0.90205568  0.17982307    -0.63800
O130        O  0.72753790  0.83563277  0.15394950    -0.72200
O131        O  0.66441860  0.77732092  0.14875727    -0.71800
O132        O  0.60807154  0.84367174  0.17467721    -0.63000
O133        O  0.63458283  0.82577399  0.11721864    -0.75500
O134        O  0.63778953  0.79570413  0.20640668    -0.74300
Cu135      Cu  0.70168492  0.87076819  0.16709314     1.04600
Cu136      Cu  0.63400763  0.80860350  0.16158450     1.04300
C137        C  0.66980910  0.82053137  0.22312510     0.92000
C138        C  0.66642037  0.85872472  0.10551456     0.91100
C139        C  0.63050389  0.88305321  0.18185265     0.83300
C140        C  0.70500798  0.79632358  0.14657864     0.89500
O141        O  0.87741866  0.70357143  0.12287391    -0.74200
O142        O  0.84620691  0.70295832  0.03378576    -0.75200
O143        O  0.82904174  0.73150975  0.09035540    -0.63800
O144        O  0.89518749  0.67452870  0.06609673    -0.72200
O145        O  0.83714639  0.61142483  0.07230233    -0.71800
O146        O  0.77082412  0.66857819  0.09667048    -0.63000
O147        O  0.78857595  0.63936781  0.03983139    -0.75500
O148        O  0.81978859  0.64000764  0.12896544    -0.74300
Cu149      Cu  0.86397115  0.70529595  0.07802548     1.04600
Cu150      Cu  0.80204604  0.63764284  0.08468978     1.04300
C151        C  0.85281391  0.67223508  0.14018124     0.92000
C152        C  0.81314660  0.67078193  0.02257218     0.91100
C153        C  0.78986441  0.70926555  0.09805479     0.83300
C154        C  0.87635938  0.63387654  0.06468113     0.89500
O155        O  0.54599544  0.03637189  0.29032245    -0.74200
O156        O  0.51838877  0.04334043  0.20130321    -0.75200
O157        O  0.49989075  0.06848168  0.25913605    -0.63800
O158        O  0.56484814  0.01080450  0.23237945    -0.72200
O159        O  0.50567543  0.94818449  0.23649133    -0.71800
O160        O  0.44090483  0.00571150  0.26332263    -0.63000
O161        O  0.45961507  0.98032425  0.20547213    -0.75500
O162        O  0.48734684  0.97321683  0.29436963    -0.74300
Cu163      Cu  0.53434939  0.04193877  0.24564212     1.04600
Cu164      Cu  0.47135921  0.97470948  0.25007121     1.04300
C165        C  0.52045434  0.00419186  0.30662179     0.92000
C166        C  0.48518321  0.01239724  0.18910720     0.91100
C167        C  0.46036115  0.04626745  0.26597512     0.83300
C168        C  0.54518117  0.97023929  0.22958896     0.89500
O169        O  0.30581967  0.18687872  0.12245066    -0.74200
O170        O  0.29980584  0.15209918  0.03348809    -0.75200
O171        O  0.27440405  0.10867773  0.09137379    -0.63800
O172        O  0.33166805  0.23099226  0.06457251    -0.72200
O173        O  0.39442585  0.23487434  0.06922005    -0.71800
O174        O  0.33720492  0.11257064  0.09565541    -0.63000
O175        O  0.36310011  0.15701774  0.03778891    -0.75500
O176        O  0.36885297  0.19127039  0.12688479    -0.74300
Cu177      Cu  0.30073890  0.16950425  0.07779440     1.04600
Cu178      Cu  0.36805852  0.17404596  0.08254259     1.04300
C179        C  0.33783111  0.19354851  0.13894672     0.92000
C180        C  0.33102676  0.15028895  0.02133754     0.91100
C181        C  0.29667034  0.09151340  0.09841200     0.83300
C182        C  0.37225182  0.25211818  0.06216511     0.89500
O183        O  0.45842265  0.49135454  0.45621413    -0.74200
O184        O  0.48605474  0.52444083  0.04540908    -0.75200
O185        O  0.50466328  0.56900181  0.48805846    -0.63800
O186        O  0.43940138  0.44609145  0.01348885    -0.72200
O187        O  0.49837674  0.44235115  0.00894682    -0.71800
O188        O  0.56363524  0.56524248  0.48364635    -0.63000
O189        O  0.54457024  0.51975801  0.04097716    -0.75500
O190        O  0.51708351  0.48693942  0.45181432    -0.74300
Cu191      Cu  0.47009196  0.50786326  0.50097163     1.04600
Cu192      Cu  0.53296814  0.50346216  0.49619221     1.04300
C193        C  0.48392315  0.48486457  0.43974231     0.92000
C194        C  0.51909874  0.52624217  0.05748315     0.91100
C195        C  0.54417689  0.58636518  0.48119315     0.83300
C196        C  0.45883116  0.42492301  0.01570218     0.89500
O197        O  0.15581028  0.85748021  0.21174610    -0.74200
O198        O  0.12431694  0.82615059  0.12270646    -0.75200
O199        O  0.10734995  0.77973972  0.17959417    -0.63800
O200        O  0.17236592  0.90285712  0.15503463    -0.72200
O201        O  0.23081365  0.89855119  0.14874837    -0.71800
O202        O  0.16570528  0.77528154  0.17326459    -0.63000
O203        O  0.18225467  0.82080014  0.11651624    -0.75500
O204        O  0.21372540  0.85206149  0.20568139    -0.74300
Cu205      Cu  0.13793527  0.84168162  0.16752289     1.04600
Cu206      Cu  0.20016898  0.83654007  0.16079517     1.04300
C207        C  0.18903396  0.85873310  0.22296840     0.92000
C208        C  0.14899604  0.81956341  0.10535807     0.91100
C209        C  0.12651988  0.75824057  0.18099023     0.83300
C210        C  0.21156645  0.91997765  0.14734661     0.89500
O211        O  0.00322277  0.44707042  0.26449319    -0.74200
O212        O  0.06231474  0.56957695  0.23788846    -0.75200
O213        O  0.03541393  0.52593872  0.29556520    -0.63800
O214        O  0.03075678  0.49174468  0.20671231    -0.72200
O215        O  0.96786589  0.48760744  0.20177921    -0.71800
O216        O  0.97245136  0.52166861  0.29071210    -0.63000
O217        O  0.99981282  0.56619936  0.23297145    -0.75500
O218        O  0.94071164  0.44362972  0.25948585    -0.74300
Cu219      Cu  0.03506362  0.50865098  0.25137071     1.04600
Cu220      Cu  0.96804444  0.50466099  0.24604816     1.04300
C221        C  0.96261313  0.42620666  0.26688750     0.92000
C222        C  0.04040181  0.58698565  0.23049272     0.91100
C223        C  0.00423072  0.52811860  0.30739146     0.83300
C224        C  0.99919684  0.48569195  0.18993765     0.89500
O225        O  0.89640053  0.23323898  0.31720442    -0.74200
O226        O  0.83290442  0.10995048  0.34210598    -0.75200
O227        O  0.84875234  0.15513290  0.28516715    -0.63800
O228        O  0.88018514  0.18719312  0.37422994    -0.72200
O229        O  0.82169199  0.19156105  0.38032720    -0.71800
O230        O  0.79047767  0.15991418  0.29123960    -0.63000
O231        O  0.77401062  0.11346912  0.34820422    -0.75500
O232        O  0.83764637  0.23695997  0.32353135    -0.74300
Cu233      Cu  0.86660794  0.17128550  0.32942737     1.04600
Cu234      Cu  0.80389596  0.17555838  0.33608896     1.04300
C235        C  0.87686539  0.25439515  0.31579298     0.92000
C236        C  0.79362002  0.09238084  0.34968388     0.91100
C237        C  0.81538023  0.15357644  0.27394334     0.83300
C238        C  0.85521934  0.19342923  0.39152787     0.89500
O239        O  0.72994738  0.90202352  0.40382797    -0.74200
O240        O  0.67136258  0.77917871  0.43007452    -0.75200
O241        O  0.69909833  0.82409337  0.37237936    -0.63800
O242        O  0.70258290  0.85787279  0.46134490    -0.72200
O243        O  0.63963127  0.85349086  0.45611883    -0.71800
O244        O  0.63585044  0.81911759  0.36727523    -0.63000
O245        O  0.60875385  0.77548899  0.42494363    -0.75500
O246        O  0.66726094  0.89806456  0.39838330    -0.74300
Cu247      Cu  0.70290912  0.84089484  0.41710691     1.04600
Cu248      Cu  0.63572289  0.83642120  0.41145897     1.04300
C249        C  0.70790394  0.91929165  0.39639639     0.92000
C250        C  0.63074439  0.75816778  0.43235762     0.91100
C251        C  0.66731959  0.81733585  0.35557250     0.83300
C252        C  0.67125299  0.85997110  0.47300147     0.89500
C253        C  0.72715387  0.02619103  0.36674636    -0.14600
C254        C  0.77124364  0.04778329  0.36101130     0.07500
C255        C  0.79424079  0.02685622  0.36726954    -0.14600
C256        C  0.77372343  0.98542166  0.37908657    -0.14600
C257        C  0.72963576  0.96374856  0.38477897     0.07500
C258        C  0.70653746  0.98455234  0.37838456    -0.14600
H259        H  0.70854760  0.04145997  0.36224191     0.11500
H260        H  0.82827913  0.04264142  0.36330927     0.11500
H261        H  0.79244993  0.97028031  0.38359231     0.11500
H262        H  0.67251363  0.96869506  0.38241687     0.11500
C263        C  0.89694455  0.36106237  0.28563386    -0.14600
C264        C  0.94080855  0.38208853  0.27910883     0.07500
C265        C  0.96373911  0.36111543  0.28545881    -0.14600
C266        C  0.94315165  0.31986889  0.29775891    -0.14600
C267        C  0.89925944  0.29883303  0.30419710     0.07500
C268        C  0.87644750  0.31999371  0.29811002    -0.14600
H269        H  0.87839281  0.37642394  0.28125612     0.11500
H270        H  0.99760677  0.37652231  0.28085677     0.11500
H271        H  0.96161351  0.30441252  0.30213199     0.11500
H272        H  0.84256401  0.30463479  0.30264438     0.11500
C273        C  0.12638433  0.69234845  0.19829141    -0.14600
C274        C  0.10385263  0.71389030  0.19263456     0.07500
C275        C  0.06014639  0.69338996  0.19965692    -0.14600
C276        C  0.03948154  0.65226113  0.21215522    -0.14600
C277        C  0.06219354  0.63095683  0.21810858     0.07500
C278        C  0.10583826  0.65144572  0.21096159    -0.14600
H279        H  0.16011873  0.70728924  0.19328663     0.11500
H280        H  0.04192823  0.70918754  0.19562962     0.11500
H281        H  0.00576411  0.63722235  0.21724250     0.11500
H282        H  0.12418350  0.63578027  0.21499039     0.11500
C283        C  0.61083973  0.65149551  0.46300172    -0.14600
C284        C  0.56694337  0.63070909  0.46945692     0.07500
C285        C  0.54436700  0.65208818  0.46336166    -0.14600
C286        C  0.56505969  0.69314176  0.45095138    -0.14600
C287        C  0.60891393  0.71399663  0.44446542     0.07500
C288        C  0.63165671  0.69279588  0.45073601    -0.14600
H289        H  0.62910540  0.63582530  0.46734929     0.11500
H290        H  0.51050129  0.63695635  0.96790992     0.11500
H291        H  0.54663878  0.70865455  0.44662605     0.11500
H292        H  0.66551437  0.70807108  0.44612335     0.11500
C293        C  0.27799186  0.98548621  0.12939390    -0.14600
C294        C  0.23407787  0.96435196  0.13576910     0.07500
C295        C  0.21112726  0.98532594  0.12960934    -0.14600
C296        C  0.23144165  0.02629811  0.11712164    -0.14600
C297        C  0.27528718  0.04747433  0.11064872     0.07500
C298        C  0.29844590  0.02673717  0.11706525    -0.14600
H299        H  0.29652183  0.97011855  0.13383554     0.11500
H300        H  0.17722292  0.96988172  0.13407963     0.11500
H301        H  0.21271920  0.04146191  0.11268444     0.11500
H302        H  0.33233333  0.04232074  0.11250067     0.11500
C303        C  0.37096095  0.31734772  0.04398973    -0.14600
C304        C  0.39391951  0.29643844  0.05050414     0.07500
C305        C  0.43800369  0.31787657  0.04493584    -0.14600
C306        C  0.45875011  0.35925207  0.03320665    -0.14600
C307        C  0.43599652  0.38037138  0.02689171     0.07500
C308        C  0.39184458  0.35900250  0.03238987    -0.14600
H309        H  0.33691529  0.30158818  0.04790731     0.11500
H310        H  0.45660574  0.30262134  0.04951496     0.11500
H311        H  0.49280468  0.37483881  0.02937015     0.11500
H312        H  0.37344951  0.37446952  0.02778217     0.11500
C313        C  0.70781857  0.83212796  0.27362185    -0.14600
C314        C  0.66961850  0.81250395  0.25669319     0.07500
C315        C  0.63085572  0.78929685  0.27266591    -0.14600
C316        C  0.63010855  0.78878749  0.30503933    -0.14600
C317        C  0.66817539  0.81053913  0.32194669     0.07500
C318        C  0.70712321  0.83072681  0.30595397    -0.14600
H319        H  0.73816049  0.85003410  0.26190174     0.11500
H320        H  0.60092253  0.77387987  0.26021914     0.11500
H321        H  0.59968805  0.77285565  0.31686255     0.11500
H322        H  0.73692319  0.84791667  0.31843748     0.11500
C323        C  0.63138958  0.85096438  0.02224776    -0.14600
C324        C  0.67048631  0.86712882  0.00661910     0.07500
C325        C  0.70835401  0.88542678  0.02390153    -0.14600
C326        C  0.70703211  0.88549414  0.05622839    -0.14600
C327        C  0.66777951  0.86634129  0.07185913     0.07500
C328        C  0.63001604  0.85006517  0.05460668    -0.14600
H329        H  0.60168719  0.83653073  0.00951112     0.11500
H330        H  0.73891510  0.89821039  0.01244579     0.11500
H331        H  0.73662072  0.89806555  0.06897795     0.11500
H332        H  0.59937411  0.83524334  0.06613189     0.11500
C333        C  0.70309979  0.72927475  0.12870142    -0.14600
C334        C  0.72623005  0.77334910  0.13457529     0.07500
C335        C  0.76995921  0.79596887  0.12772828    -0.14600
C336        C  0.79016636  0.77515658  0.11532799    -0.14600
C337        C  0.76727230  0.73108718  0.10963992     0.07500
C338        C  0.72348122  0.70829239  0.11647678    -0.14600
H339        H  0.66930489  0.71099510  0.13360928     0.11500
H340        H  0.78866695  0.82997540  0.13173288     0.11500
H341        H  0.82397599  0.79366375  0.11051568     0.11500
H342        H  0.70500450  0.67427739  0.11245183     0.11500
C343        C  0.56499677  0.88377260  0.19899898    -0.14600
C344        C  0.60907195  0.90612782  0.19333238     0.07500
C345        C  0.63226117  0.95003800  0.19979170    -0.14600
C346        C  0.61171131  0.97103541  0.21170102    -0.14600
C347        C  0.56764286  0.94844576  0.21760007     0.07500
C348        C  0.54459150  0.90461586  0.21104322    -0.14600
H349        H  0.54616969  0.84992200  0.19440631     0.11500
H350        H  0.66627828  0.96815168  0.19571840     0.11500
H351        H  0.63033283  0.00488054  0.21636578     0.11500
H352        H  0.51057450  0.88628925  0.21507937     0.11500
C353        C  0.04095351  0.55507143  0.39030700    -0.14600
C354        C  0.00191515  0.53440045  0.40618978     0.07500
C355        C  0.96381766  0.51655022  0.38921434    -0.14600
C356        C  0.96472184  0.51742977  0.35688326    -0.14600
C357        C  0.00372211  0.53520314  0.34098933     0.07500
C358        C  0.04185131  0.55499655  0.35796266    -0.14600
H359        H  0.07078889  0.56887393  0.40285258     0.11500
H360        H  0.93332178  0.50051086  0.40093241     0.11500
H361        H  0.93485312  0.50175484  0.34435882     0.11500
H362        H  0.07232443  0.56898743  0.34624177     0.11500
C363        C  0.03949393  0.49709371  0.14067374    -0.14600
C364        C  0.00022625  0.47952201  0.15623226     0.07500
C365        C  0.96243100  0.46089490  0.13887951    -0.14600
C366        C  0.96392906  0.46148773  0.10655431    -0.14600
C367        C  0.00326262  0.48167635  0.09102677     0.07500
C368        C  0.04101824  0.49866392  0.10834175    -0.14600
H369        H  0.06914036  0.51198237  0.15348667     0.11500
H370        H  0.93176856  0.44720046  0.15030155     0.11500
H371        H  0.93434641  0.44844283  0.09374568     0.11500
H372        H  0.07172227  0.51439057  0.09689994     0.11500
C373        C  0.96442571  0.61579667  0.03437976    -0.14600
C374        C  0.94198594  0.57181686  0.02820529     0.07500
C375        C  0.89817772  0.54847593  0.03479599    -0.14600
C376        C  0.87722060  0.56855847  0.04721318    -0.14600
C377        C  0.89947014  0.61256183  0.05316356     0.07500
C378        C  0.94332744  0.63600838  0.04661932    -0.14600
H379        H  0.99824827  0.63461195  0.52969961     0.11500
H380        H  0.88000311  0.51449300  0.03056090     0.11500
H381        H  0.84338759  0.54959178  0.05181580     0.11500
H382        H  0.96133351  0.66999303  0.05087058     0.11500
C383        C  0.29409450  0.12487066  0.43823099    -0.14600
C384        C  0.33318070  0.14489292  0.42237921     0.07500
C385        C  0.37118082  0.16162228  0.43938455    -0.14600
C386        C  0.37022584  0.16040722  0.47171305    -0.14600
C387        C  0.33128802  0.14338804  0.48763455     0.07500
C388        C  0.29316732  0.12459794  0.47060491    -0.14600
H389        H  0.26433436  0.11191836  0.42566066     0.11500
H390        H  0.40171060  0.17711102  0.42769459     0.11500
H391        H  0.40010986  0.17527303  0.48422998     0.11500
H392        H  0.26272007  0.11117537  0.48230789     0.11500
C393        C  0.37448609  0.21802906  0.22215854    -0.14600
C394        C  0.33539739  0.20125709  0.23782251     0.07500
C395        C  0.29786541  0.18708738  0.22062654    -0.14600
C396        C  0.29913009  0.18760233  0.18827544    -0.14600
C397        C  0.33781721  0.20121269  0.17257914     0.07500
C398        C  0.37564250  0.21754402  0.18981799    -0.14600
H399        H  0.40385092  0.22887356  0.23491300     0.11500
H400        H  0.26737301  0.17411528  0.23221318     0.11500
H401        H  0.26945733  0.17481180  0.17561762     0.11500
H402        H  0.40592135  0.22838283  0.17834549     0.11500
C403        C  0.43873728  0.13196439  0.29562470    -0.14600
C404        C  0.39468455  0.10893072  0.30138694     0.07500
C405        C  0.37217497  0.06495584  0.29521643    -0.14600
C406        C  0.39337171  0.04450747  0.28357702    -0.14600
C407        C  0.43742059  0.06770013  0.27765478     0.07500
C408        C  0.45980943  0.11163952  0.28383394    -0.14600
H409        H  0.45701193  0.16591615  0.29996610     0.11500
H410        H  0.33820212  0.04634565  0.29936764     0.11500
H411        H  0.37524464  0.01056761  0.27916729     0.11500
H412        H  0.49377833  0.13041384  0.27971099     0.11500
C413        C  0.12739158  0.44594044  0.44917228    -0.14600
C414        C  0.10502546  0.40154290  0.44490043     0.07500
C415        C  0.06160836  0.37845049  0.45281628    -0.14600
C416        C  0.04104449  0.39933199  0.46476079    -0.14600
C417        C  0.06356360  0.44369191  0.46924951     0.07500
C418        C  0.10693727  0.46673702  0.46128526    -0.14600
H419        H  0.16088963  0.46468441  0.44340668     0.11500
H420        H  0.04352136  0.34419945  0.44989789     0.11500
H421        H  0.00755334  0.38071036  0.97057572     0.11500
H422        H  0.12509812  0.50099147  0.46418459     0.11500
C423        C  0.21004109  0.23539128  0.38081779    -0.14600
C424        C  0.23303715  0.27934700  0.38698752     0.07500
C425        C  0.27671363  0.30228021  0.37984589    -0.14600
C426        C  0.29692833  0.28164485  0.36686204    -0.14600
C427        C  0.27380967  0.23772585  0.36052067     0.07500
C428        C  0.23014802  0.21486034  0.36765342    -0.14600
H429        H  0.17629798  0.21682557  0.38584944     0.11500
H430        H  0.29527621  0.33621192  0.38419575     0.11500
H431        H  0.33066150  0.30010808  0.36177720     0.11500
H432        H  0.21149244  0.18092832  0.36332327     0.11500
C433        C  0.49577743  0.45979672  0.35671112    -0.14600
C434        C  0.47493951  0.47808182  0.34099881     0.07500
C435        C  0.45266231  0.49363060  0.35807600    -0.14600
C436        C  0.45303016  0.49291999  0.39038595    -0.14600
C437        C  0.47660211  0.47764964  0.40613883     0.07500
C438        C  0.49703313  0.46004063  0.38903846    -0.14600
H439        H  0.51342270  0.44784427  0.34403039     0.11500
H440        H  0.43629045  0.50777955  0.34643692     0.11500
H441        H  0.43708024  0.50678403  0.40298514     0.11500
H442        H  0.51531062  0.44794278  0.40062324     0.11500
C443        C  0.54803038  0.51474460  0.13923453    -0.14600
C444        C  0.52758553  0.53231743  0.15630957     0.07500
C445        C  0.50882513  0.55267056  0.14053638    -0.14600
C446        C  0.50772263  0.55255673  0.10818231    -0.14600
C447        C  0.52630677  0.53303862  0.09112591     0.07500
C448        C  0.54783889  0.51555518  0.10692842    -0.14600
H449        H  0.56279421  0.49895875  0.15086391     0.11500
H450        H  0.49264019  0.56625805  0.15317460     0.11500
H451        H  0.49103295  0.56635477  0.09652729     0.11500
H452        H  0.56226110  0.50012300  0.09435224     0.11500
C453        C  0.84777565  0.22118526  0.47456215    -0.14600
C454        C  0.86419749  0.19860574  0.49028840     0.07500
C455        C  0.88290870  0.17929132  0.47312954    -0.14600
C456        C  0.88301118  0.18052821  0.44076325    -0.14600
C457        C  0.86340504  0.20012606  0.42508484     0.07500
C458        C  0.84689014  0.22147125  0.44225131    -0.14600
H459        H  0.83305119  0.23627399  0.48719469     0.11500
H460        H  0.89593778  0.16183431  0.48470207     0.11500
H461        H  0.89583316  0.16369835  0.42803896     0.11500
H462        H  0.83176890  0.23695128  0.43068654     0.11500
C463        C  0.78963677  0.16955303  0.19224780    -0.14600
C464        C  0.80588682  0.14786335  0.17510412     0.07500
C465        C  0.82031800  0.12361313  0.19094994    -0.14600
C466        C  0.82152829  0.12373022  0.22329632    -0.14600
C467        C  0.80726878  0.14715129  0.24036753     0.07500
C468        C  0.78985813  0.16877762  0.22460707    -0.14600
H469        H  0.77828021  0.18846204  0.18065424     0.11500
H470        H  0.83318848  0.10672112  0.17837086     0.11500
H471        H  0.83500778  0.10674782  0.23496198     0.11500
H472        H  0.77894728  0.18734033  0.23726100     0.11500
C473        C  0.15489689  0.37468991  0.27452882    -0.14600
C474        C  0.14036295  0.33574188  0.25897539     0.07500
C475        C  0.12432870  0.29807375  0.27635449    -0.14600
C476        C  0.12471588  0.29956645  0.30867205    -0.14600
C477        C  0.14206917  0.33883132  0.32415151     0.07500
C478        C  0.15628698  0.37628275  0.30685670    -0.14600
H479        H  0.16762599  0.40425827  0.26173431     0.11500
H480        H  0.11293725  0.26763583  0.26498014     0.11500
H481        H  0.11388955  0.27027346  0.32152727     0.11500
H482        H  0.16975685  0.40690185  0.31832647     0.11500
C483        C  0.21606970  0.38004006  0.05721316    -0.14600
C484        C  0.19668310  0.34176448  0.07405672     0.07500
C485        C  0.17967658  0.30291967  0.05803944    -0.14600
C486        C  0.17899956  0.30222050  0.02572613    -0.14600
C487        C  0.19627939  0.34038477  0.00886686     0.07500
C488        C  0.21633297  0.37936124  0.02485216    -0.14600
H489        H  0.22953817  0.41041050  0.06903661     0.11500
H490        H  0.16439721  0.27294125  0.07044572     0.11500
H491        H  0.16348345  0.27177314  0.01391976     0.11500
H492        H  0.22971346  0.40923321  0.01237753     0.11500
C493        C  0.02185866  0.30096236  0.13115053    -0.14600
C494        C  0.04301953  0.27807417  0.13695925     0.07500
C495        C  0.02193968  0.23421826  0.13043125    -0.14600
C496        C  0.98071052  0.21369767  0.11832585    -0.14600
C497        C  0.95944911  0.23648576  0.11258138     0.07500
C498        C  0.98043787  0.28034369  0.11917960    -0.14600
H499        H  0.03728756  0.33481329  0.13584707     0.11500
H500        H  0.03741973  0.21569533  0.13445012     0.11500
H501        H  0.96540561  0.17984876  0.11364712     0.11500
H502        H  0.96486778  0.29876709  0.11510376     0.11500
C503        C  0.31373027  0.37560211  0.20165614    -0.14600
C504        C  0.29254818  0.39847756  0.19585228     0.07500
C505        C  0.31351216  0.44229507  0.20241391    -0.14600
C506        C  0.35468060  0.46283356  0.21452317    -0.14600
C507        C  0.37601423  0.44011322  0.22020970     0.07500
C508        C  0.35514914  0.39626931  0.21361720    -0.14600
H509        H  0.29834121  0.34175885  0.19693670     0.11500
H510        H  0.29800361  0.46079162  0.19839531     0.11500
H511        H  0.36992876  0.49668910  0.21916468     0.11500
H512        H  0.37082559  0.37793726  0.21765471     0.11500
C513        C  0.54971907  0.04367027  0.38859651    -0.14600
C514        C  0.52835992  0.00558604  0.40550193     0.07500
C515        C  0.50895264  0.96657150  0.38955101    -0.14600
C516        C  0.50809987  0.96584542  0.35716995    -0.14600
C517        C  0.52756645  0.00409389  0.34027296     0.07500
C518        C  0.54976817  0.04291218  0.35628582    -0.14600
H519        H  0.56501177  0.07414437  0.40037001     0.11500
H520        H  0.49206488  0.93676176  0.40206385     0.11500
H521        H  0.49086248  0.93548675  0.34537291     0.11500
H522        H  0.56489201  0.07288440  0.34387122     0.11500
C523        C  0.45325351  0.97205481  0.10749831    -0.14600
C524        C  0.47639502  0.00956827  0.09026370     0.07500
C525        C  0.49806754  0.04881256  0.10582065    -0.14600
C526        C  0.49926385  0.05014581  0.13817183    -0.14600
C527        C  0.47793245  0.01233128  0.15545120     0.07500
C528        C  0.45354172  0.97348014  0.13980779    -0.14600
H529        H  0.43620752  0.94146178  0.09598377     0.11500
H530        H  0.51637073  0.07817535  0.09300611     0.11500
H531        H  0.51820604  0.08053236  0.14963245     0.11500
H532        H  0.43685505  0.94381403  0.15250637     0.11500
C533        C  0.64844472  0.04487044  0.03230931    -0.14600
C534        C  0.62729593  0.06774768  0.02637917     0.07500
C535        C  0.64826154  0.11154857  0.03310570    -0.14600
C536        C  0.68924460  0.13195195  0.04569811    -0.14600
C537        C  0.71040354  0.10912415  0.05171981     0.07500
C538        C  0.68962664  0.06537528  0.04473786    -0.14600
H539        H  0.63313020  0.01107156  0.02743831     0.11500
H540        H  0.63279242  0.13006429  0.02900731     0.11500
H541        H  0.70441874  0.16573582  0.05059175     0.11500
H542        H  0.70514306  0.04692608  0.04892593     0.11500
C543        C  0.21510571  0.84336741  0.30473732    -0.14600
C544        C  0.19785579  0.86422157  0.32177079     0.07500
C545        C  0.18292568  0.88798596  0.30586494    -0.14600
C546        C  0.18207673  0.88805941  0.27353777    -0.14600
C547        C  0.19716060  0.86529733  0.25653243     0.07500
C548        C  0.21522801  0.84433584  0.27236732    -0.14600
H549        H  0.22694689  0.82492876  0.31641302     0.11500
H550        H  0.16934571  0.90427900  0.31836881     0.11500
H551        H  0.16813068  0.90457610  0.26182967     0.11500
H552        H  0.22685896  0.82635213  0.25976347     0.11500
C553        C  0.12230843  0.83509610  0.02381802    -0.14600
C554        C  0.13939152  0.81425322  0.00660193     0.07500
C555        C  0.15452248  0.79051339  0.02231095    -0.14600
C556        C  0.15570825  0.79043277  0.05462428    -0.14600
C557        C  0.14074706  0.81314524  0.07180752     0.07500
C558        C  0.12250631  0.83410347  0.05617719    -0.14600
H559        H  0.11034061  0.85352618  0.01229107     0.11500
H560        H  0.16799708  0.77424002  0.00965327     0.11500
H561        H  0.16977576  0.77392099  0.06617526     0.11500
H562        H  0.11095740  0.85204660  0.06892833     0.11500
C563        C  0.31436242  0.88088307  0.45085846    -0.14600
C564        C  0.29295802  0.90344503  0.44476150     0.07500
C565        C  0.31363252  0.94728662  0.45144180    -0.14600
C566        C  0.35494562  0.96813850  0.46364479    -0.14600
C567        C  0.37634455  0.94553820  0.46964621     0.07500
C568        C  0.35548197  0.90163642  0.46322506    -0.14600
H569        H  0.29928045  0.84704642  0.44619235     0.11500
H570        H  0.29793588  0.96554880  0.44718452     0.11500
H571        H  0.37016249  0.00198796  0.46829240     0.11500
H572        H  0.37112597  0.88330087  0.96739797     0.11500
C573        C  0.81792695  0.70592597  0.43987860    -0.14600
C574        C  0.80477305  0.66756164  0.42388446     0.07500
C575        C  0.78899932  0.62950196  0.44079301    -0.14600
C576        C  0.78870878  0.63018560  0.47313822    -0.14600
C577        C  0.80506960  0.66903463  0.48905337     0.07500
C578        C  0.81859535  0.70672387  0.47219662    -0.14600
H579        H  0.83027919  0.73574951  0.42746676     0.11500
H580        H  0.77851624  0.59946031  0.42905184     0.11500
H581        H  0.77834237  0.60072872  0.48566935     0.11500
H582        H  0.83119691  0.73701966  0.48402122     0.11500
C583        C  0.84601951  0.63655893  0.19093423    -0.14600
C584        C  0.86086479  0.67418342  0.17374302     0.07500
C585        C  0.87885045  0.71341288  0.18934942    -0.14600
C586        C  0.87910976  0.71468500  0.22170270    -0.14600
C587        C  0.86233644  0.67681772  0.23893168     0.07500
C588        C  0.84725186  0.63791075  0.22323735    -0.14600
H589        H  0.83208973  0.60595432  0.17939685     0.11500
H590        H  0.89023887  0.74285523  0.17658261     0.11500
H591        H  0.89097547  0.74509768  0.23321863     0.11500
H592        H  0.83395556  0.60819713  0.23590537     0.11500
C593        C  0.68815821  0.63519623  0.29627877    -0.14600
C594        C  0.70954476  0.61248255  0.30194905     0.07500
C595        C  0.68871911  0.56869034  0.29528101    -0.14600
C596        C  0.64756370  0.54805169  0.28312142    -0.14600
C597        C  0.62608307  0.57063234  0.27747376     0.07500
C598        C  0.64675100  0.61442700  0.28426200    -0.14600
H599        H  0.70339663  0.66899985  0.30111459     0.11500
H600        H  0.70434538  0.55029132  0.29923147     0.11500
H601        H  0.63245873  0.51423292  0.27837376     0.11500
H602        H  0.63094641  0.63265502  0.28030473     0.11500
C603        C  0.98046542  0.71032676  0.36695218    -0.14600
C604        C  0.95931267  0.73320337  0.36100482     0.07500
C605        C  0.98060455  0.77717180  0.36714297    -0.14600
C606        C  0.02204240  0.79779945  0.37889814    -0.14600
C607        C  0.04334195  0.77505557  0.38469972     0.07500
C608        C  0.02209922  0.73105174  0.37858582    -0.14600
H609        H  0.96487324  0.67638709  0.36258880     0.11500
H610        H  0.96517982  0.79572470  0.36301988     0.11500
H611        H  0.03750422  0.83173751  0.38324130     0.11500
H612        H  0.03763260  0.71261478  0.38276335     0.11500
O613        O  0.81519358  0.63761563  0.87789950    -0.74200
O614        O  0.84949167  0.64497424  0.78894099    -0.75200
O615        O  0.89409655  0.67083150  0.84662644    -0.63800
O616        O  0.77150760  0.61236504  0.82033122    -0.72200
O617        O  0.77459297  0.67484285  0.81641289    -0.71800
O618        O  0.89721674  0.73331602  0.84271193    -0.63000
O619        O  0.85331361  0.70782251  0.78497054    -0.75500
O620        O  0.81893261  0.70043646  0.87411050    -0.74300
Cu621      Cu  0.83249490  0.63930914  0.83360011     1.04600
Cu622      Cu  0.83614161  0.70629125  0.82940911     1.04300
C623        C  0.81252486  0.66823089  0.89027015     0.92000
C624        C  0.85559732  0.67694783  0.77264223     0.91100
C625        C  0.91488918  0.71139819  0.84938150     0.83300
C626        C  0.75384582  0.63428810  0.81366736     0.89500
O627        O  0.22805866  0.90072286  0.92976689    -0.74200
O628        O  0.10558528  0.83713122  0.90301346    -0.75200
O629        O  0.14904867  0.85481041  0.96079612    -0.63800
O630        O  0.18399458  0.88266045  0.87179001    -0.72200
O631        O  0.18782834  0.82366265  0.86762220    -0.71800
O632        O  0.15283344  0.79579014  0.95652620    -0.63000
O633        O  0.10862205  0.77775784  0.89870433    -0.75500
O634        O  0.23126652  0.84143226  0.92554275    -0.74300
Cu635      Cu  0.16658581  0.87089475  0.91648053     1.04600
Cu636      Cu  0.17022751  0.80759810  0.91191787     1.04300
C637        C  0.24880916  0.88092672  0.93256685     0.92000
C638        C  0.08784544  0.79757579  0.89618462     0.91100
C639        C  0.14655102  0.82147851  0.97294124     0.83300
C640        C  0.19038735  0.85698795  0.85542675     0.89500
O641        O  0.51516599  0.97544219  0.95627669    -0.74200
O642        O  0.48387590  0.97552048  0.54554540    -0.75200
O643        O  0.43826430  0.94589228  0.98878948    -0.63800
O644        O  0.56162069  0.00521009  0.51321493    -0.72200
O645        O  0.56558613  0.06782888  0.50709797    -0.71800
O646        O  0.44203774  0.00840621  0.98256762    -0.63000
O647        O  0.48872616  0.03859729  0.53935176    -0.75500
O648        O  0.51996182  0.03852462  0.95040755    -0.74300
Cu649      Cu  0.49961665  0.97334993  0.00121200     1.04600
Cu650      Cu  0.50416700  0.04047106  0.99459283     1.04300
C651        C  0.52157061  0.00678237  0.93907874     0.92000
C652        C  0.48248888  0.00749372  0.55670654     0.91100
C653        C  0.42083430  0.96769230  0.98114837     0.83300
C654        C  0.58289464  0.04589128  0.51472784     0.89500
O655        O  0.18268984  0.30975505  0.62407410    -0.74200
O656        O  0.14906174  0.30417895  0.71316781    -0.75200
O657        O  0.10481309  0.27783946  0.65566562    -0.63800
O658        O  0.22741735  0.33621529  0.68157942    -0.72200
O659        O  0.23082870  0.39880972  0.67723749    -0.71800
O660        O  0.10828975  0.34043176  0.65109722    -0.63000
O661        O  0.15304520  0.36705089  0.70871971    -0.75500
O662        O  0.18707059  0.37282980  0.61972121    -0.74300
Cu663      Cu  0.16586436  0.30482190  0.66878937     1.04600
Cu664      Cu  0.16989201  0.37193321  0.66401659     1.04300
C665        C  0.18929833  0.34180242  0.60764629     0.92000
C666        C  0.14695658  0.33527653  0.72526231     0.91100
C667        C  0.08734140  0.29983039  0.64867589     0.83300
C668        C  0.24830400  0.37678633  0.68411400     0.89500
O669        O  0.85427465  0.15754084  0.53587575    -0.74200
O670        O  0.81911961  0.12909719  0.62491959    -0.75200
O671        O  0.77510396  0.11143669  0.56679578    -0.63800
O672        O  0.89747264  0.17465504  0.59375325    -0.72200
O673        O  0.89448377  0.23404567  0.59821946    -0.71800
O674        O  0.77203003  0.17077106  0.57131379    -0.63000
O675        O  0.81547560  0.18818142  0.62921809    -0.75500
O676        O  0.85043040  0.21650808  0.54041180    -0.74300
Cu677      Cu  0.83655827  0.14109077  0.58017784     1.04600
Cu678      Cu  0.83300294  0.20441461  0.58497091     1.04300
C679        C  0.85682835  0.19099128  0.52389130     0.92000
C680        C  0.81297101  0.15486557  0.64137956     0.91100
C681        C  0.75445152  0.13134859  0.56408840     0.83300
C682        C  0.91516357  0.21414261  0.60076517     0.89500
O683        O  0.43752403  0.50201727  0.73914006    -0.74200
O684        O  0.56037194  0.56717734  0.76409127    -0.75200
O685        O  0.51444856  0.54959602  0.70694275    -0.63800
O686        O  0.48250872  0.51901427  0.79602336    -0.72200
O687        O  0.48783849  0.46097261  0.79036554    -0.71800
O688        O  0.51956024  0.49143256  0.70140097    -0.63000
O689        O  0.56472150  0.50867757  0.75827345    -0.75500
O690        O  0.44172946  0.44342583  0.73339382    -0.74300
Cu691      Cu  0.49857495  0.53649175  0.75177602     1.04600
Cu692      Cu  0.50359478  0.47409190  0.74562142     1.04300
C693        C  0.42038090  0.46272724  0.73170655     0.92000
C694        C  0.58177182  0.54793925  0.76581092     0.91100
C695        C  0.52099627  0.52460494  0.68990408     0.83300
C696        C  0.48123486  0.48586952  0.80744161     0.89500
O697        O  0.21360694  0.37097106  0.95827674    -0.74200
O698        O  0.18324163  0.37259172  0.86905204    -0.75200
O699        O  0.16678153  0.40131765  0.92601747    -0.63800
O700        O  0.23053411  0.34194798  0.90104721    -0.72200
O701        O  0.17165613  0.27942076  0.90687061    -0.71800
O702        O  0.10792674  0.33880374  0.93192836    -0.63000
O703        O  0.12482061  0.30956554  0.87491886    -0.75500
O704        O  0.15512857  0.30794925  0.96381234    -0.74300
Cu705      Cu  0.20061450  0.37388577  0.91338920     1.04600
Cu706      Cu  0.13783748  0.30681285  0.91963542     1.04300
C707        C  0.18848729  0.33948156  0.97529867     0.92000
C708        C  0.14992370  0.34078798  0.85772595     0.91100
C709        C  0.12748144  0.37948921  0.93350643     0.83300
C710        C  0.21088523  0.30128614  0.89919371     0.89500
O711        O  0.36487434  0.21811890  0.78865981    -0.74200
O712        O  0.36601456  0.18659601  0.87752578    -0.75200
O713        O  0.39443736  0.17050988  0.82044925    -0.63800
O714        O  0.33595442  0.23471410  0.84606284    -0.72200
O715        O  0.27318751  0.17614879  0.84018296    -0.71800
O716        O  0.33184353  0.11184155  0.81425697    -0.63000
O717        O  0.30290658  0.12833576  0.87167331    -0.75500
O718        O  0.30159049  0.16008160  0.78272678    -0.74300
Cu719      Cu  0.36743851  0.20452161  0.83339334     1.04600
Cu720      Cu  0.30018614  0.14205477  0.82693935     1.04300
C721        C  0.33351644  0.19333329  0.77143437     0.92000
C722        C  0.33435089  0.15315309  0.88883610     0.91100
C723        C  0.37253536  0.13129357  0.81277060     0.83300
C724        C  0.29532675  0.21530503  0.84803262     0.89500
O725        O  0.03614306  0.52253354  0.54574261    -0.74200
O726        O  0.03272862  0.55217896  0.95663551    -0.75200
O727        O  0.00472443  0.56949638  0.51413720    -0.63800
O728        O  0.06374046  0.50560717  0.98829321    -0.72200
O729        O  0.00118075  0.44655760  0.98320942    -0.71800
O730        O  0.94226508  0.51043353  0.50869215    -0.63000
O731        O  0.96983846  0.49343873  0.95147970    -0.75500
O732        O  0.97308551  0.46402549  0.54047583    -0.74300
Cu733      Cu  0.03651756  0.53952583  0.00140548     1.04600
Cu734      Cu  0.96946398  0.47657217  0.99574785     1.04300
C735        C  0.00459015  0.48929621  0.55739452     0.92000
C736        C  0.00115038  0.52681614  0.93979219     0.91100
C737        C  0.96408288  0.54973496  0.51618706     0.83300
C738        C  0.04179621  0.46621084  0.98104099     0.89500
O739        O  0.70126270  0.85369744  0.71133464    -0.74200
O740        O  0.69818249  0.88359842  0.62238384    -0.75200
O741        O  0.67112665  0.90205582  0.67982324    -0.63800
O742        O  0.72753788  0.83563254  0.65394979    -0.72200
O743        O  0.66441851  0.77732079  0.64875750    -0.71800
O744        O  0.60807173  0.84367210  0.67467710    -0.63000
O745        O  0.63458312  0.82577407  0.61721868    -0.75500
O746        O  0.63778902  0.79570408  0.70640668    -0.74300
Cu747      Cu  0.70168503  0.87076809  0.66709335     1.04600
Cu748      Cu  0.63400762  0.80860360  0.66158453     1.04300
C749        C  0.66980851  0.82053102  0.72312524     0.92000
C750        C  0.66642065  0.85872477  0.60551459     0.91100
C751        C  0.63050417  0.88305351  0.68185269     0.83300
C752        C  0.70500791  0.79632335  0.64657897     0.89500
O753        O  0.87741856  0.70357080  0.62287379    -0.74200
O754        O  0.84620630  0.70295796  0.53378604    -0.75200
O755        O  0.82904147  0.73150921  0.59035580    -0.63800
O756        O  0.89518682  0.67452795  0.56609654    -0.72200
O757        O  0.83714564  0.61142412  0.57230206    -0.71800
O758        O  0.77082386  0.66857768  0.59667104    -0.63000
O759        O  0.78857513  0.63936760  0.53983154    -0.75500
O760        O  0.81978859  0.64000696  0.62896554    -0.74300
Cu761      Cu  0.86397072  0.70529535  0.57802557     1.04600
Cu762      Cu  0.80204556  0.63764228  0.58468991     1.04300
C763        C  0.85281398  0.67223452  0.64018119     0.92000
C764        C  0.81314582  0.67078185  0.52257241     0.91100
C765        C  0.78986419  0.70926503  0.59805535     0.83300
C766        C  0.87635861  0.63387580  0.56468082     0.89500
O767        O  0.54599518  0.03637224  0.79032257    -0.74200
O768        O  0.51838874  0.04334041  0.70130312    -0.75200
O769        O  0.49989027  0.06848161  0.75913584    -0.63800
O770        O  0.56484832  0.01080486  0.73237964    -0.72200
O771        O  0.50567579  0.94818475  0.73649166    -0.71800
O772        O  0.44090448  0.00571133  0.76332243    -0.63000
O773        O  0.45961528  0.98032403  0.70547210    -0.75500
O774        O  0.48734670  0.97321709  0.79436977    -0.74300
Cu775      Cu  0.53434924  0.04193894  0.74564213     1.04600
Cu776      Cu  0.47135924  0.97470952  0.75007126     1.04300
C777        C  0.52045414  0.00419219  0.80662193     0.92000
C778        C  0.48518333  0.01239701  0.68910713     0.91100
C779        C  0.46036066  0.04626729  0.76597484     0.83300
C780        C  0.54518151  0.97023963  0.72958926     0.89500
O781        O  0.30581946  0.18687883  0.62245039    -0.74200
O782        O  0.29980623  0.15209992  0.53348773    -0.75200
O783        O  0.27440390  0.10867805  0.59137313    -0.63800
O784        O  0.33166833  0.23099283  0.56457241    -0.72200
O785        O  0.39442608  0.23487481  0.56922002    -0.71800
O786        O  0.33720470  0.11257088  0.59565499    -0.63000
O787        O  0.36310040  0.15701828  0.53778873    -0.75500
O788        O  0.36885276  0.19127052  0.62688463    -0.74300
Cu789      Cu  0.30073900  0.16950472  0.57779405     1.04600
Cu790      Cu  0.36805855  0.17404632  0.58254240     1.04300
C791        C  0.33783082  0.19354852  0.63894652     0.92000
C792        C  0.33102711  0.15028951  0.52133730     0.91100
C793        C  0.29667008  0.09151359  0.59841130     0.83300
C794        C  0.37225211  0.25211873  0.56216510     0.89500
O795        O  0.45842311  0.49135441  0.95621397    -0.74200
O796        O  0.48605560  0.52444179  0.54540879    -0.75200
O797        O  0.50466304  0.56900144  0.98805888    -0.63800
O798        O  0.43940172  0.44609212  0.51348910    -0.72200
O799        O  0.49837699  0.44235170  0.50894684    -0.71800
O800        O  0.56363517  0.56524235  0.98364717    -0.63000
O801        O  0.54457109  0.51975897  0.54097667    -0.75500
O802        O  0.51708417  0.48693959  0.95181453    -0.74300
Cu803      Cu  0.47009170  0.50786271  0.00097169     1.04600
Cu804      Cu  0.53296801  0.50346180  0.99619260     1.04300
C805        C  0.48392393  0.48486469  0.93974229     0.92000
C806        C  0.51909972  0.52624327  0.55748273     0.91100
C807        C  0.54417677  0.58636500  0.98119390     0.83300
C808        C  0.45883147  0.42492366  0.51570238     0.89500
O809        O  0.15581052  0.85748065  0.71174591    -0.74200
O810        O  0.12431672  0.82615032  0.62270639    -0.75200
O811        O  0.10735024  0.77973990  0.67959429    -0.63800
O812        O  0.17236566  0.90285721  0.65503412    -0.72200
O813        O  0.23081347  0.89855143  0.64874791    -0.71800
O814        O  0.16570558  0.77528180  0.67326457    -0.63000
O815        O  0.18225463  0.82080020  0.61651613    -0.75500
O816        O  0.21372564  0.85206196  0.70568109    -0.74300
Cu817      Cu  0.13793528  0.84168174  0.66752274     1.04600
Cu818      Cu  0.20016907  0.83654035  0.66079495     1.04300
C819        C  0.18903419  0.85873346  0.72296816     0.92000
C820        C  0.14899588  0.81956321  0.60535799     0.91100
C821        C  0.12652023  0.75824079  0.68099034     0.83300
C822        C  0.21156613  0.91997775  0.64734595     0.89500
O823        O  0.00322199  0.44707004  0.76449303    -0.74200
O824        O  0.06231472  0.56957676  0.73788847    -0.75200
O825        O  0.03541343  0.52593837  0.79556518    -0.63800
O826        O  0.03075655  0.49174447  0.70671226    -0.72200
O827        O  0.96786579  0.48760747  0.70177900    -0.71800
O828        O  0.97245096  0.52166845  0.79071204    -0.63000
O829        O  0.99981293  0.56619942  0.73297139    -0.75500
O830        O  0.94071097  0.44362953  0.75948558    -0.74300
Cu831      Cu  0.03506322  0.50865068  0.75137066     1.04600
Cu832      Cu  0.96804417  0.50466094  0.74604800     1.04300
C833        C  0.96261234  0.42620633  0.76688722     0.92000
C834        C  0.04040195  0.58698562  0.73049271     0.91100
C835        C  0.00423028  0.52811837  0.80739143     0.83300
C836        C  0.99919673  0.48569187  0.68993752     0.89500
O837        O  0.89640010  0.23323867  0.81720412    -0.74200
O838        O  0.83290471  0.10995022  0.84210597    -0.75200
O839        O  0.84875223  0.15513239  0.78516709    -0.63800
O840        O  0.88018521  0.18719295  0.87422972    -0.72200
O841        O  0.82169198  0.19156070  0.88032711    -0.71800
O842        O  0.79047731  0.15991322  0.79123948    -0.63000
O843        O  0.77401079  0.11346862  0.84820425    -0.75500
O844        O  0.83764577  0.23695935  0.82353105    -0.74300
Cu845      Cu  0.86660790  0.17128522  0.82942722     1.04600
Cu846      Cu  0.80389575  0.17555778  0.83608885     1.04300
C847        C  0.87686478  0.25439467  0.81579261     0.92000
C848        C  0.79362032  0.09238048  0.84968393     0.91100
C849        C  0.81537996  0.15357553  0.77394325     0.83300
C850        C  0.85521938  0.19342891  0.89152771     0.89500
O851        O  0.72994765  0.90202306  0.90382786    -0.74200
O852        O  0.67136259  0.77917842  0.93007490    -0.75200
O853        O  0.69909795  0.82409256  0.87237940    -0.63800
O854        O  0.70258330  0.85787274  0.96134498    -0.72200
O855        O  0.63963179  0.85349109  0.95611896    -0.71800
O856        O  0.63585022  0.81911719  0.86727563    -0.63000
O857        O  0.60875394  0.77548891  0.92494422    -0.75500
O858        O  0.66726129  0.89806434  0.89838340    -0.74300
Cu859      Cu  0.70290921  0.84089443  0.91710699     1.04600
Cu860      Cu  0.63572309  0.83642109  0.91145927     1.04300
C861        C  0.70790429  0.91929130  0.89639638     0.92000
C862        C  0.63074442  0.75816764  0.93235823     0.91100
C863        C  0.66731908  0.81733514  0.85557269     0.83300
C864        C  0.67125351  0.85997127  0.97300156     0.89500
C865        C  0.72715422  0.02619058  0.86674620    -0.14600
C866        C  0.77124405  0.04778298  0.86101141     0.07500
C867        C  0.79424130  0.02685609  0.86726992    -0.14600
C868        C  0.77372393  0.98542150  0.87908692    -0.14600
C869        C  0.72963617  0.96374823  0.88477900     0.07500
C870        C  0.70653782  0.98455188  0.87838436    -0.14600
H871        H  0.70854788  0.04145938  0.86224153     0.11500
H872        H  0.82827970  0.04264144  0.86330989     0.11500
H873        H  0.79245048  0.97028026  0.88359289     0.11500
H874        H  0.67251393  0.96869449  0.88241644     0.11500
C875        C  0.89694370  0.36106200  0.78563368    -0.14600
C876        C  0.94080765  0.38208809  0.77910840     0.07500
C877        C  0.96373816  0.36111484  0.78545804    -0.14600
C878        C  0.94315076  0.31986830  0.79775810    -0.14600
C879        C  0.89925865  0.29883252  0.80419661     0.07500
C880        C  0.87644671  0.31999329  0.79810981    -0.14600
H881        H  0.87839200  0.37642367  0.78125619     0.11500
H882        H  0.99760576  0.37652164  0.78085577     0.11500
H883        H  0.96161262  0.30441187  0.80213094     0.11500
H884        H  0.84256329  0.30463442  0.80264441     0.11500
C885        C  0.12638459  0.69234845  0.69829128    -0.14600
C886        C  0.10385301  0.71389051  0.69263474     0.07500
C887        C  0.06014685  0.69339032  0.69965739    -0.14600
C888        C  0.03948198  0.65226145  0.71215562    -0.14600
C889        C  0.06219382  0.63095690  0.71810865     0.07500
C890        C  0.10583848  0.65144564  0.71096141    -0.14600
H891        H  0.16011892  0.70728911  0.69328626     0.11500
H892        H  0.04192877  0.70918803  0.69563035     0.11500
H893        H  0.00576462  0.63722281  0.71724312     0.11500
H894        H  0.12418360  0.63578000  0.71498994     0.11500
C895        C  0.61083981  0.65149567  0.96300314    -0.14600
C896        C  0.56694333  0.63070904  0.96945788     0.07500
C897        C  0.54436697  0.65208802  0.96336223    -0.14600
C898        C  0.56505960  0.69314159  0.95095192    -0.14600
C899        C  0.60891394  0.71399659  0.94446628     0.07500
C900        C  0.63165675  0.69279601  0.95073738    -0.14600
H901        H  0.62910557  0.63582563  0.96735103     0.11500
H902        H  0.51050140  0.63695666  0.46790968     0.11500
H903        H  0.54663859  0.70865419  0.94662623     0.11500
H904        H  0.66551448  0.70807135  0.94612504     0.11500
C905        C  0.27799144  0.98548634  0.62939312    -0.14600
C906        C  0.23407738  0.96435191  0.63576805     0.07500
C907        C  0.21112660  0.98532559  0.62960774    -0.14600
C908        C  0.23144106  0.02629778  0.61712003    -0.14600
C909        C  0.27528676  0.04747431  0.61064766     0.07500
C910        C  0.29844555  0.02673730  0.61706448    -0.14600
H911        H  0.29652150  0.97011886  0.63383511     0.11500
H912        H  0.17722218  0.96988117  0.63407771     0.11500
H913        H  0.21271854  0.04146142  0.61268250     0.11500
H914        H  0.33233308  0.04232104  0.61250024     0.11500
C915        C  0.37096132  0.31734836  0.54398985    -0.14600
C916        C  0.39391986  0.29643905  0.55050424     0.07500
C917        C  0.43800405  0.31787722  0.54493602    -0.14600
C918        C  0.45875047  0.35925277  0.53320692    -0.14600
C919        C  0.43599688  0.38037207  0.52689198     0.07500
C920        C  0.39184492  0.35900317  0.53239007    -0.14600
H921        H  0.33691565  0.30158877  0.54790736     0.11500
H922        H  0.45660609  0.30262199  0.54951514     0.11500
H923        H  0.49280506  0.37483953  0.52937045     0.11500
H924        H  0.37344982  0.37447016  0.52778235     0.11500
C925        C  0.70781753  0.83212367  0.77362186    -0.14600
C926        C  0.66961732  0.81250322  0.75669330     0.07500
C927        C  0.63085414  0.78929937  0.77266606    -0.14600
C928        C  0.63010702  0.78878982  0.80503946    -0.14600
C929        C  0.66817423  0.81053804  0.82194682     0.07500
C930        C  0.70712212  0.83072225  0.80595401    -0.14600
H931        H  0.73815971  0.85002719  0.76190164     0.11500
H932        H  0.60092086  0.77388526  0.76021932     0.11500
H933        H  0.59968641  0.77286067  0.81686266     0.11500
H934        H  0.73692242  0.84790938  0.81843748     0.11500
C935        C  0.63138915  0.85096335  0.52224786    -0.14600
C936        C  0.67048583  0.86712859  0.50661904     0.07500
C937        C  0.70835369  0.88542739  0.52390133    -0.14600
C938        C  0.70703202  0.88549485  0.55622823    -0.14600
C939        C  0.66777953  0.86634127  0.57185913     0.07500
C940        C  0.63001586  0.85006428  0.55460679    -0.14600
H941        H  0.60168667  0.83652902  0.50951134     0.11500
H942        H  0.73891477  0.89821162  0.51244546     0.11500
H943        H  0.73662078  0.89806693  0.56897767     0.11500
H944        H  0.59937397  0.83524185  0.56613210     0.11500
C945        C  0.70309987  0.72927427  0.62870257    -0.14600
C946        C  0.72622996  0.77334879  0.63457577     0.07500
C947        C  0.76995897  0.79596864  0.62772824    -0.14600
C948        C  0.79016603  0.77515622  0.61532804    -0.14600
C949        C  0.76727213  0.73108668  0.60964058     0.07500
C950        C  0.72348123  0.70829180  0.61647802    -0.14600
H951        H  0.66930510  0.71099456  0.63361088     0.11500
H952        H  0.78866661  0.82997530  0.63173231     0.11500
H953        H  0.82397552  0.79366345  0.61051526     0.11500
H954        H  0.70500461  0.67427667  0.61245358     0.11500
C955        C  0.56499731  0.88377278  0.69899985    -0.14600
C956        C  0.60907232  0.90612818  0.69333252     0.07500
C957        C  0.63226144  0.95003854  0.69979127    -0.14600
C958        C  0.61171158  0.97103595  0.71170069    -0.14600
C959        C  0.56764331  0.94844614  0.71760041     0.07500
C960        C  0.54459211  0.90461606  0.71104418    -0.14600
H961        H  0.54617032  0.84992204  0.69440768     0.11500
H962        H  0.66627842  0.96815237  0.69571742     0.11500
H963        H  0.63033297  0.00488122  0.71636495     0.11500
H964        H  0.51057525  0.88628929  0.71508089     0.11500
C965        C  0.04095349  0.55507179  0.89030692    -0.14600
C966        C  0.00191520  0.53440069  0.90618984     0.07500
C967        C  0.96381758  0.51655024  0.88921449    -0.14600
C968        C  0.96472156  0.51742962  0.85688337    -0.14600
C969        C  0.00372177  0.53520305  0.84098932     0.07500
C970        C  0.04185108  0.55499674  0.85796256    -0.14600
H971        H  0.07078894  0.56887449  0.90285242     0.11500
H972        H  0.93332177  0.50051082  0.90093265     0.11500
H973        H  0.93485278  0.50175451  0.84435901     0.11500
H974        H  0.07232413  0.56898770  0.84624157     0.11500
C975        C  0.03949404  0.49709447  0.64067363    -0.14600
C976        C  0.00022629  0.47952198  0.65623214     0.07500
C977        C  0.96243103  0.46089404  0.63887938    -0.14600
C978        C  0.96392912  0.46148683  0.60655418    -0.14600
C979        C  0.00326267  0.48167624  0.59102663     0.07500
C980        C  0.04101833  0.49866463  0.60834164    -0.14600
H981        H  0.06914046  0.51198377  0.65348657     0.11500
H982        H  0.93176854  0.44719897  0.65030143     0.11500
H983        H  0.93434643  0.44844127  0.59374553     0.11500
H984        H  0.07172237  0.51439189  0.59689985     0.11500
C985        C  0.96442512  0.61579589  0.53438002    -0.14600
C986        C  0.94198525  0.57181626  0.52820491     0.07500
C987        C  0.89817681  0.54847543  0.53479486    -0.14600
C988        C  0.87721961  0.56855791  0.54721202    -0.14600
C989        C  0.89946929  0.61256109  0.55316311     0.07500
C990        C  0.94332679  0.63600754  0.54661955    -0.14600
H991        H  0.99824870  0.63461282  0.02969877     0.11500
H992        H  0.88000209  0.51449264  0.53055922     0.11500
H993        H  0.84338644  0.54959133  0.55181408     0.11500
H994        H  0.96133298  0.66999205  0.55087138     0.11500
C995        C  0.29409440  0.12487115  0.93823109    -0.14600
C996        C  0.33318063  0.14489350  0.92237933     0.07500
C997        C  0.37118071  0.16162275  0.93938471    -0.14600
C998        C  0.37022555  0.16040727  0.97171320    -0.14600
C999        C  0.33128772  0.14338786  0.98763471     0.07500
C1000       C  0.29316706  0.12459804  0.97060502    -0.14600
H1001       H  0.26433431  0.11191896  0.92566073     0.11500
H1002       H  0.40171054  0.17711160  0.92769481     0.11500
H1003       H  0.40010952  0.17527293  0.98423018     0.11500
H1004       H  0.26271978  0.11117535  0.98230795     0.11500
C1005       C  0.37448565  0.21802945  0.72215834    -0.14600
C1006       C  0.33539690  0.20125672  0.73782235     0.07500
C1007       C  0.29786478  0.18708618  0.72062638    -0.14600
C1008       C  0.29912949  0.18760119  0.68827529    -0.14600
C1009       C  0.33781674  0.20121244  0.67257896     0.07500
C1010       C  0.37564211  0.21754447  0.68981778    -0.14600
H1011       H  0.40385059  0.22887459  0.73491279     0.11500
H1012       H  0.26737230  0.17411345  0.73221301     0.11500
H1013       H  0.26945669  0.17481006  0.67561746     0.11500
H1014       H  0.40592108  0.22838395  0.67834527     0.11500
C1015       C  0.43873659  0.13196422  0.79562411    -0.14600
C1016       C  0.39468397  0.10893047  0.80138677     0.07500
C1017       C  0.37217443  0.06495551  0.79521653    -0.14600
C1018       C  0.39337119  0.04450717  0.78357703    -0.14600
C1019       C  0.43741998  0.06769992  0.77765443     0.07500
C1020       C  0.45980872  0.11163939  0.78383326    -0.14600
H1021       H  0.45701120  0.16591605  0.79996525     0.11500
H1022       H  0.33820165  0.04634525  0.79936804     0.11500
H1023       H  0.37524420  0.01056725  0.77916755     0.11500
H1024       H  0.49377753  0.13041381  0.77971002     0.11500
C1025       C  0.12739128  0.44594052  0.94917184    -0.14600
C1026       C  0.10502549  0.40154282  0.94490082     0.07500
C1027       C  0.06160872  0.37845022  0.95281763    -0.14600
C1028       C  0.04104487  0.39933175  0.96476212    -0.14600
C1029       C  0.06356365  0.44369186  0.96924990     0.07500
C1030       C  0.10693702  0.46673714  0.96128481    -0.14600
H1031       H  0.16088908  0.46468463  0.94340551     0.11500
H1032       H  0.04352199  0.34419905  0.94989997     0.11500
H1033       H  0.00755269  0.38071070  0.47057365     0.11500
H1034       H  0.12509762  0.50099172  0.96418342     0.11500
C1035       C  0.21004194  0.23539218  0.88081809    -0.14600
C1036       C  0.23303804  0.27934788  0.88698783     0.07500
C1037       C  0.27671448  0.30228105  0.87984610    -0.14600
C1038       C  0.29692908  0.28164567  0.86686211    -0.14600
C1039       C  0.27381032  0.23772668  0.86052071     0.07500
C1040       C  0.23014873  0.21486123  0.86765359    -0.14600
H1041       H  0.17629885  0.21682648  0.88584982     0.11500
H1042       H  0.29527710  0.33621276  0.88419597     0.11500
H1043       H  0.33066223  0.30010885  0.86177719     0.11500
H1044       H  0.21149307  0.18092922  0.86332343     0.11500
C1045       C  0.49577906  0.45979696  0.85671112    -0.14600
C1046       C  0.47494098  0.47808174  0.84099863     0.07500
C1047       C  0.45266361  0.49363045  0.85807570    -0.14600
C1048       C  0.45303135  0.49292002  0.89038566    -0.14600
C1049       C  0.47660333  0.47764989  0.90613872     0.07500
C1050       C  0.49703463  0.46004103  0.88903849    -0.14600
H1051       H  0.51342447  0.44784457  0.84403051     0.11500
H1052       H  0.43629162  0.50777917  0.84643651     0.11500
H1053       H  0.43708122  0.50678395  0.90298471     0.11500
H1054       H  0.51531217  0.44794334  0.90062341     0.11500
C1055       C  0.54803162  0.51474592  0.63923406    -0.14600
C1056       C  0.52758543  0.53231733  0.65630909     0.07500
C1057       C  0.50882441  0.55266988  0.64053597    -0.14600
C1058       C  0.50772249  0.55255676  0.60818191    -0.14600
C1059       C  0.52630783  0.53303985  0.59112546     0.07500
C1060       C  0.54784071  0.51555720  0.60692795    -0.14600
H1061       H  0.56279605  0.49896065  0.65086342     0.11500
H1062       H  0.49263852  0.56625634  0.65317422     0.11500
H1063       H  0.49103220  0.56635419  0.59652694     0.11500
H1064       H  0.56226389  0.50012601  0.59435172     0.11500
C1065       C  0.84777732  0.22118600  0.97456206    -0.14600
C1066       C  0.86419785  0.19860523  0.99028828     0.07500
C1067       C  0.88290757  0.17928939  0.97312933    -0.14600
C1068       C  0.88300992  0.18052623  0.94076304    -0.14600
C1069       C  0.86340514  0.20012547  0.92508469     0.07500
C1070       C  0.84689166  0.22147191  0.94225121    -0.14600
H1071       H  0.83305401  0.23627585  0.98719463     0.11500
H1072       H  0.89593558  0.16183138  0.98470180     0.11500
H1073       H  0.89583072  0.16369533  0.92803870     0.11500
H1074       H  0.83177146  0.23695297  0.93068645     0.11500
C1075       C  0.78963357  0.16954901  0.69224766    -0.14600
C1076       C  0.80588660  0.14786202  0.67510404     0.07500
C1077       C  0.82032065  0.12361425  0.69094985    -0.14600
C1078       C  0.82153088  0.12373124  0.72329622    -0.14600
C1079       C  0.80726845  0.14714984  0.74036744     0.07500
C1080       C  0.78985488  0.16877346  0.72460694    -0.14600
H1081       H  0.77827471  0.18845605  0.68065407     0.11500
H1082       H  0.83319347  0.10672441  0.67837074     0.11500
H1083       H  0.83501264  0.10675090  0.73496181     0.11500
H1084       H  0.77894165  0.18733416  0.73726087     0.11500
C1085       C  0.15489660  0.37468926  0.77452873    -0.14600
C1086       C  0.14036359  0.33574126  0.75897541     0.07500
C1087       C  0.12433054  0.29807335  0.77635467    -0.14600
C1088       C  0.12471783  0.29956628  0.80867224    -0.14600
C1089       C  0.14207002  0.33883116  0.82415158     0.07500
C1090       C  0.15628680  0.37628234  0.80685664    -0.14600
H1091       H  0.16762478  0.40425746  0.76173413     0.11500
H1092       H  0.11293988  0.26763547  0.76498044     0.11500
H1093       H  0.11389237  0.27027352  0.82152756     0.11500
H1094       H  0.16975585  0.40690143  0.81832632     0.11500
C1095       C  0.21606816  0.38003982  0.55721281    -0.14600
C1096       C  0.19668273  0.34176424  0.57405638     0.07500
C1097       C  0.17967731  0.30291950  0.55803910    -0.14600
C1098       C  0.17900025  0.30222031  0.52572578    -0.14600
C1099       C  0.19627898  0.34038452  0.50886653     0.07500
C1100       C  0.21633141  0.37936101  0.52485181    -0.14600
H1101       H  0.22953574  0.41041021  0.56903623     0.11500
H1102       H  0.16439885  0.27294108  0.57044539     0.11500
H1103       H  0.16348500  0.27177294  0.51391938     0.11500
H1104       H  0.22971096  0.40923292  0.51237717     0.11500
C1105       C  0.02185920  0.30096261  0.63114897    -0.14600
C1106       C  0.04301948  0.27807411  0.63695887     0.07500
C1107       C  0.02193905  0.23421788  0.63043190    -0.14600
C1108       C  0.98070988  0.21369732  0.61832649    -0.14600
C1109       C  0.95944901  0.23648566  0.61258097     0.07500
C1110       C  0.98043839  0.28034393  0.61917803    -0.14600
H1111       H  0.03728858  0.33481380  0.63584460     0.11500
H1112       H  0.03741858  0.21569466  0.63445165     0.11500
H1113       H  0.96540448  0.17984816  0.61364866     0.11500
H1114       H  0.96486876  0.29876758  0.61510130     0.11500
C1115       C  0.31373010  0.37560072  0.70165632    -0.14600
C1116       C  0.29254820  0.39847632  0.69585216     0.07500
C1117       C  0.31351233  0.44229387  0.70241367    -0.14600
C1118       C  0.35468070  0.46283233  0.71452308    -0.14600
C1119       C  0.37601418  0.44011190  0.72020987     0.07500
C1120       C  0.35514895  0.39626791  0.71361753    -0.14600
H1121       H  0.29834092  0.34175742  0.69693701     0.11500
H1122       H  0.29800394  0.46079052  0.69839485     0.11500
H1123       H  0.36992893  0.49668793  0.71916443     0.11500
H1124       H  0.37082529  0.37793581  0.71765525     0.11500
C1125       C  0.54971895  0.04367017  0.88859673    -0.14600
C1126       C  0.52836026  0.00558583  0.90550209     0.07500
C1127       C  0.50895319  0.96657138  0.88955108    -0.14600
C1128       C  0.50810025  0.96584562  0.85717001    -0.14600
C1129       C  0.52756635  0.00409417  0.84027310     0.07500
C1130       C  0.54976786  0.04291241  0.85628603    -0.14600
H1131       H  0.56501145  0.07414418  0.90037034     0.11500
H1132       H  0.49206574  0.93676151  0.90206383     0.11500
H1133       H  0.49086307  0.93548703  0.84537287     0.11500
H1134       H  0.56489137  0.07288474  0.84387154     0.11500
C1135       C  0.45325520  0.97205422  0.60749818    -0.14600
C1136       C  0.47639467  0.00956805  0.59026358     0.07500
C1137       C  0.49806543  0.04881242  0.60582062    -0.14600
C1138       C  0.49926201  0.05014558  0.63817183    -0.14600
C1139       C  0.47793256  0.01233079  0.65545112     0.07500
C1140       C  0.45354365  0.97347937  0.63980766    -0.14600
H1141       H  0.43621066  0.94146108  0.59598363     0.11500
H1142       H  0.51636709  0.07817551  0.59300612     0.11500
H1143       H  0.51820280  0.08053233  0.64963253     0.11500
H1144       H  0.43685862  0.94381307  0.65250619     0.11500
C1145       C  0.64844408  0.04487038  0.53230951    -0.14600
C1146       C  0.62729532  0.06774769  0.52637952     0.07500
C1147       C  0.64826080  0.11154846  0.53310649    -0.14600
C1148       C  0.68924381  0.13195169  0.54569899    -0.14600
C1149       C  0.71040286  0.10912388  0.55172032     0.07500
C1150       C  0.68962597  0.06537508  0.54473814    -0.14600
H1151       H  0.63312961  0.01107157  0.52743824     0.11500
H1152       H  0.63279164  0.13006420  0.52900833     0.11500
H1153       H  0.70441790  0.16573548  0.55059290     0.11500
H1154       H  0.70514242  0.04692585  0.54892599     0.11500
C1155       C  0.21510554  0.84336650  0.80473690    -0.14600
C1156       C  0.19785593  0.86422078  0.82177058     0.07500
C1157       C  0.18292598  0.88798548  0.80586494    -0.14600
C1158       C  0.18207700  0.88805928  0.77353777    -0.14600
C1159       C  0.19716073  0.86529725  0.75653222     0.07500
C1160       C  0.21522785  0.84433531  0.77236690    -0.14600
H1161       H  0.22694654  0.82492758  0.81641243     0.11500
H1162       H  0.16934621  0.90427857  0.81836898     0.11500
H1163       H  0.16813110  0.90457625  0.76182985     0.11500
H1164       H  0.22685863  0.82635157  0.75976287     0.11500
C1165       C  0.12230646  0.83509432  0.52381807    -0.14600
C1166       C  0.13939116  0.81425302  0.50660192     0.07500
C1167       C  0.15452383  0.79051459  0.52231081    -0.14600
C1168       C  0.15570964  0.79043388  0.55462412    -0.14600
C1169       C  0.14074682  0.81314486  0.57180746     0.07500
C1170       C  0.12250439  0.83410157  0.55617724    -0.14600
H1171       H  0.11033730  0.85352328  0.51229117     0.11500
H1172       H  0.16799973  0.77424250  0.50965305     0.11500
H1173       H  0.16977848  0.77392329  0.56617500     0.11500
H1174       H  0.11095419  0.85204352  0.56892846     0.11500
C1175       C  0.31436358  0.88088249  0.95085731    -0.14600
C1176       C  0.29295859  0.90344415  0.94476137     0.07500
C1177       C  0.31363247  0.94728541  0.95144277    -0.14600
C1178       C  0.35494548  0.96813724  0.96364588    -0.14600
C1179       C  0.37634498  0.94553729  0.96964634     0.07500
C1180       C  0.35548307  0.90163586  0.96322405    -0.14600
H1181       H  0.29928214  0.84704610  0.94619030     0.11500
H1182       H  0.29793539  0.96554736  0.94718631     0.11500
H1183       H  0.37016183  0.00198644  0.96829439     0.11500
H1184       H  0.37112436  0.88330113  0.46739980     0.11500
C1185       C  0.81792417  0.70592445  0.93987825    -0.14600
C1186       C  0.80477327  0.66756058  0.92388422     0.07500
C1187       C  0.78900288  0.62950139  0.94079295    -0.14600
C1188       C  0.78871267  0.63018521  0.97313814    -0.14600
C1189       C  0.80507044  0.66903405  0.98905314     0.07500
C1190       C  0.81859292  0.70672261  0.97219629    -0.14600
H1191       H  0.83027379  0.73574764  0.92746632     0.11500
H1192       H  0.77852222  0.59946009  0.92905194     0.11500
H1193       H  0.77834889  0.60072888  0.98566939     0.11500
H1194       H  0.83119211  0.73701818  0.98402082     0.11500
C1195       C  0.84602171  0.63655919  0.69093422    -0.14600
C1196       C  0.86086517  0.67418332  0.67374290     0.07500
C1197       C  0.87884934  0.71341284  0.68934911    -0.14600
C1198       C  0.87910888  0.71468521  0.72170236    -0.14600
C1199       C  0.86233731  0.67681822  0.73893150     0.07500
C1200       C  0.84725435  0.63791134  0.72323733    -0.14600
H1201       H  0.83209312  0.60595458  0.67939695     0.11500
H1202       H  0.89023631  0.74285490  0.67658218     0.11500
H1203       H  0.89097331  0.74509781  0.73321814     0.11500
H1204       H  0.83395946  0.60819791  0.73590547     0.11500
C1205       C  0.68815896  0.63519621  0.79627743    -0.14600
C1206       C  0.70954560  0.61248259  0.80194765     0.07500
C1207       C  0.68872026  0.56869053  0.79527908    -0.14600
C1208       C  0.64756492  0.54805195  0.78311934    -0.14600
C1209       C  0.62608402  0.57063243  0.77747206     0.07500
C1210       C  0.64675181  0.61442703  0.78426051    -0.14600
H1211       H  0.70339722  0.66899974  0.80111354     0.11500
H1212       H  0.70434663  0.55029156  0.79922937     0.11500
H1213       H  0.63246011  0.51423326  0.77837142     0.11500
H1214       H  0.63094709  0.63265498  0.78030345     0.11500
C1215       C  0.98046610  0.71032698  0.86695149    -0.14600
C1216       C  0.95931314  0.73320349  0.86100461     0.07500
C1217       C  0.98060493  0.77717186  0.86714305    -0.14600
C1218       C  0.02204283  0.79779943  0.87889815    -0.14600
C1219       C  0.04334252  0.77505559  0.88469938     0.07500
C1220       C  0.02209992  0.73105187  0.87858507    -0.14600
H1221       H  0.96487404  0.67638739  0.86258781     0.11500
H1222       H  0.96518007  0.79572472  0.86302028     0.11500
H1223       H  0.03750458  0.83173741  0.88324160     0.11500
H1224       H  0.03763341  0.71261493  0.88276225     0.11500
loop_ 
_geom_bond_atom_site_label_1 
_geom_bond_atom_site_label_2 
_geom_bond_distance 
_geom_bond_site_symmetry_2 
_ccdc_geom_bond_type 
O1           Cu9   2.006       .  S
O1           C11   1.278       .  A
O2           Cu9   2.005       .  S
O2           C12   1.278       .  A
O3           Cu9   2.014       .  S
O3           C13   1.279       .  A
O4           Cu9   2.003       .  S
O4           C14   1.278       .  A
O5          Cu10   2.012       .  S
O5           C14   1.278       .  A
O6          Cu10   2.006       .  S
O6           C13   1.278       .  A
O7          Cu10   2.011       .  S
O7           C12   1.279       .  A
O8          Cu10   2.008       .  S
O8           C11   1.278       .  A
Cu9         Cu10   2.371       .  S
C11         C574   1.477       .  S
C12         C587   1.477       .  S
C13         C604   1.482       .  S
C14         C594   1.480       .  S
O15         Cu23   2.014       .  S
O15          C25   1.279       .  A
O16         Cu23   2.005       .  S
O16          C26   1.278       .  A
O17         Cu23   2.010       .  S
O17          C27   1.278       .  A
O18         Cu23   2.010       .  S
O18          C28   1.278       .  A
O19         Cu24   2.010       .  S
O19          C28   1.278       .  A
O20         Cu24   2.007       .  S
O20          C27   1.278       .  A
O21         Cu24   2.017       .  S
O21          C26   1.279       .  A
O22         Cu24   2.008       .  S
O22          C25   1.279       .  A
Cu23        Cu24   2.371       .  S
C25         C564   1.483       .  S
C26         C607   1.483       .  S
C27        C1166   1.478       .  S
C28         C544   1.479       .  S
O29         Cu37   2.013       .  S
O29          C39   1.278   1_565  A
O30        Cu649   2.011       .  S
O30          C40   1.279   1_565  A
O31         Cu37   2.003       .  S
O31          C41   1.278       .  A
O32        Cu649   2.015   1_545  S
O32          C42   1.279       .  A
O33        Cu650   2.006   1_554  S
O33          C42   1.278       .  A
O34         Cu38   2.019       .  S
O34          C41   1.280   1_545  A
O35        Cu650   2.005   1_554  S
O35          C40   1.277       .  A
O36         Cu38   2.004       .  S
O36          C39   1.278       .  A
Cu37        O642   2.011       .  S
Cu37        O644   2.015   1_565  S
Cu37        Cu38   2.372   1_565  S
Cu38        O645   2.006       .  S
Cu38        O647   2.005       .  S
C39         C514   1.476       .  S
C40         C524   1.474       .  S
C41         C567   1.483       .  S
C42         C534   1.482       .  S
O43         Cu51   2.007       .  S
O43          C53   1.278       .  A
O44         Cu51   2.009       .  S
O44          C54   1.278       .  A
O45         Cu51   2.003       .  S
O45          C55   1.278       .  A
O46         Cu51   2.010       .  S
O46          C56   1.278       .  A
O47         Cu52   2.001       .  S
O47          C56   1.278       .  A
O48         Cu52   2.013       .  S
O48          C55   1.279       .  A
O49         Cu52   2.007       .  S
O49          C54   1.278       .  A
O50         Cu52   2.008       .  S
O50          C53   1.278       .  A
Cu51        Cu52   2.372       .  S
C53         C484   1.476       .  S
C54         C474   1.478       .  S
C55         C494   1.481       .  S
C56         C504   1.479       .  S
O57         Cu65   2.013       .  S
O57          C67   1.279       .  A
O58         Cu65   2.013       .  S
O58          C68   1.279       .  A
O59         Cu65   2.015       .  S
O59          C69   1.279       .  A
O60         Cu65   2.003       .  S
O60          C70   1.278       .  A
O61         Cu66   2.014       .  S
O61          C70   1.279       .  A
O62         Cu66   2.006       .  S
O62          C69   1.278       .  A
O63         Cu66   2.008       .  S
O63          C68   1.278       .  A
O64         Cu66   2.006       .  S
O64          C67   1.278       .  A
Cu65        Cu66   2.371       .  S
C67        C1066   1.477   1_554  S
C68         C464   1.480       .  S
C69         C537   1.483       .  S
C70         C497   1.481       .  S
O71         Cu79   1.998       .  S
O71          C81   1.277       .  A
O72         Cu79   2.012       .  S
O72          C82   1.278       .  A
O73         Cu79   2.009       .  S
O73          C83   1.278       .  A
O74         Cu79   2.007       .  S
O74          C84   1.278       .  A
O75         Cu80   2.005       .  S
O75          C84   1.277       .  A
O76         Cu80   2.005       .  S
O76          C83   1.278       .  A
O77         Cu80   2.001       .  S
O77          C82   1.278       .  A
O78         Cu80   2.013       .  S
O78          C81   1.279       .  A
Cu79        Cu80   2.373       .  S
C81         C507   1.479       .  S
C82         C597   1.480       .  S
C83         C444   1.475       .  S
C84         C434   1.473       .  S
O85         Cu93   2.012       .  S
O85          C95   1.278       .  A
O86         Cu93   2.011       .  S
O86          C96   1.279       .  A
O87         Cu93   2.002       .  S
O87          C97   1.278       .  A
O88         Cu93   2.014       .  S
O88          C98   1.279       .  A
O89         Cu94   2.002       .  S
O89          C98   1.278       .  A
O90         Cu94   2.014       .  S
O90          C97   1.279       .  A
O91         Cu94   2.004       .  S
O91          C96   1.277       .  A
O92         Cu94   2.004       .  S
O92          C95   1.278       .  A
Cu93        Cu94   2.372       .  S
C95        C1099   1.475       .  S
C96         C477   1.474       .  S
C97         C414   1.481       .  S
C98         C424   1.481       .  S
O99        Cu107   2.009       .  S
O99         C109   1.278       .  A
O100       Cu107   2.008       .  S
O100        C110   1.278       .  A
O101       Cu107   1.999       .  S
O101        C111   1.277       .  A
O102       Cu107   2.012       .  S
O102        C112   1.279       .  A
O103       Cu108   2.005       .  S
O103        C112   1.278       .  A
O104       Cu108   2.018       .  S
O104        C111   1.279       .  A
O105       Cu108   2.011       .  S
O105        C110   1.278       .  A
O106       Cu108   2.012       .  S
O106        C109   1.279       .  A
Cu107      Cu108   2.372       .  S
C109        C394   1.476       .  S
C110        C384   1.477       .  S
C111        C404   1.481       .  S
C112        C427   1.481       .  S
O113       Cu733   2.011       .  S
O113        C123   1.279       .  A
O114       Cu121   2.009       .  S
O114        C124   1.278       .  A
O115       Cu733   2.015       .  S
O115        C125   1.279   1_455  A
O116       Cu121   2.004       .  S
O116        C126   1.278       .  A
O117       Cu122   2.012   1_455  S
O117        C126   1.279       .  A
O118       Cu734   2.000   1_554  S
O118        C125   1.278       .  A
O119       Cu122   2.007       .  S
O119        C124   1.278   1_655  A
O120       Cu734   2.005   1_554  S
O120        C123   1.277   1_655  A
Cu121       O725   2.011       .  S
Cu121       O727   2.015       .  S
Cu121      Cu122   2.372   1_455  S
Cu122       O730   2.000       .  S
Cu122       O732   2.005       .  S
C123        C367   1.476       .  S
C124        C354   1.476       .  S
C125        C374   1.480       .  S
C126        C417   1.480       .  S
O127       Cu135   2.008       .  S
O127        C137   1.278       .  A
O128       Cu135   2.007       .  S
O128        C138   1.277       .  A
O129       Cu135   2.017       .  S
O129        C139   1.279       .  A
O130       Cu135   2.004       .  S
O130        C140   1.278       .  A
O131       Cu136   2.014       .  S
O131        C140   1.278       .  A
O132       Cu136   2.003       .  S
O132        C139   1.278       .  A
O133       Cu136   2.013       .  S
O133        C138   1.279       .  A
O134       Cu136   2.014       .  S
O134        C137   1.279       .  A
Cu135      Cu136   2.371       .  S
C137        C314   1.479       .  S
C138        C327   1.477       .  S
C139        C344   1.482       .  S
C140        C334   1.481       .  S
O141       Cu149   2.008       .  S
O141        C151   1.277       .  A
O142       Cu149   2.006       .  S
O142        C152   1.278       .  A
O143       Cu149   1.998       .  S
O143        C153   1.277       .  A
O144       Cu149   2.012       .  S
O144        C154   1.278       .  A
O145       Cu150   2.004       .  S
O145        C154   1.278       .  A
O146       Cu150   2.018       .  S
O146        C153   1.279       .  A
O147       Cu150   2.008       .  S
O147        C152   1.277       .  A
O148       Cu150   2.007       .  S
O148        C151   1.278       .  A
Cu149      Cu150   2.373       .  S
C151        C584   1.474       .  S
C152       C1189   1.473   1_554  S
C153        C337   1.481       .  S
C154        C377   1.481       .  S
O155       Cu163   2.009       .  S
O155        C165   1.278       .  A
O156       Cu163   2.010       .  S
O156        C166   1.278       .  A
O157       Cu163   2.006       .  S
O157        C167   1.279       .  A
O158       Cu163   2.017       .  S
O158        C168   1.279   1_545  A
O159       Cu164   2.003       .  S
O159        C168   1.278       .  A
O160       Cu164   2.012   1_545  S
O160        C167   1.278       .  A
O161       Cu164   2.007       .  S
O161        C166   1.278   1_565  A
O162       Cu164   2.009       .  S
O162        C165   1.278   1_565  A
Cu163      Cu164   2.371   1_545  S
C165        C517   1.478       .  S
C166        C527   1.478       .  S
C167        C407   1.481       .  S
C168        C347   1.482       .  S
O169       Cu177   2.009       .  S
O169        C179   1.278       .  A
O170       Cu177   2.011       .  S
O170        C180   1.278       .  A
O171       Cu177   2.003       .  S
O171        C181   1.278       .  A
O172       Cu177   2.013       .  S
O172        C182   1.278       .  A
O173       Cu178   2.000       .  S
O173        C182   1.278       .  A
O174       Cu178   2.011       .  S
O174        C181   1.278       .  A
O175       Cu178   2.011       .  S
O175        C180   1.278       .  A
O176       Cu178   2.011       .  S
O176        C179   1.279       .  A
Cu177      Cu178   2.371       .  S
C179        C397   1.480       .  S
C180        C999   1.479   1_554  S
C181        C297   1.480       .  S
C182        C304   1.480       .  S
O183       Cu191   2.006       .  S
O183        C193   1.278       .  A
O184       Cu803   2.009       .  S
O184        C194   1.278       .  A
O185       Cu191   2.004       .  S
O185        C195   1.278       .  A
O186       Cu803   2.013       .  S
O186        C196   1.278       .  A
O187       Cu804   2.001   1_554  S
O187        C196   1.278       .  A
O188       Cu192   2.014       .  S
O188        C195   1.279       .  A
O189       Cu804   2.006   1_554  S
O189        C194   1.278       .  A
O190       Cu192   2.006       .  S
O190        C193   1.278       .  A
Cu191       O796   2.009       .  S
Cu191       O798   2.013       .  S
Cu191      Cu192   2.372       .  S
Cu192       O799   2.001       .  S
Cu192       O801   2.006       .  S
C193        C437   1.476       .  S
C194        C447   1.476       .  S
C195        C284   1.482       .  S
C196        C307   1.480       .  S
O197       Cu205   2.007       .  S
O197        C207   1.278       .  A
O198       Cu205   2.008       .  S
O198        C208   1.277       .  A
O199       Cu205   2.013       .  S
O199        C209   1.279       .  A
O200       Cu205   1.999       .  S
O200        C210   1.278       .  A
O201       Cu206   2.015       .  S
O201        C210   1.279       .  A
O202       Cu206   2.002       .  S
O202        C209   1.278       .  A
O203       Cu206   2.010       .  S
O203        C208   1.279       .  A
O204       Cu206   2.011       .  S
O204        C207   1.278       .  A
Cu205      Cu206   2.372       .  S
C207        C547   1.476       .  S
C208        C557   1.475       .  S
C209        C274   1.480       .  S
C210        C294   1.480       .  S
O211       Cu219   2.015       .  S
O211        C221   1.279   1_455  A
O212       Cu219   2.003       .  S
O212        C222   1.278       .  A
O213       Cu219   2.008       .  S
O213        C223   1.278       .  A
O214       Cu219   2.007       .  S
O214        C224   1.278   1_455  A
O215       Cu220   2.009       .  S
O215        C224   1.278       .  A
O216       Cu220   2.008       .  S
O216        C223   1.278   1_655  A
O217       Cu220   2.013       .  S
O217        C222   1.279   1_655  A
O218       Cu220   2.005       .  S
O218        C221   1.278       .  A
Cu219      Cu220   2.372   1_455  S
C221        C264   1.482       .  S
C222        C277   1.480       .  S
C223        C357   1.476       .  S
C224        C364   1.477   1_655  S
O225       Cu233   2.016       .  S
O225        C235   1.279       .  A
O226       Cu233   2.005       .  S
O226        C236   1.278       .  A
O227       Cu233   2.010       .  S
O227        C237   1.278       .  A
O228       Cu233   2.010       .  S
O228        C238   1.278       .  A
O229       Cu234   2.008       .  S
O229        C238   1.278       .  A
O230       Cu234   2.010       .  S
O230        C237   1.278       .  A
O231       Cu234   2.018       .  S
O231        C236   1.279       .  A
O232       Cu234   2.005       .  S
O232        C235   1.278       .  A
Cu233      Cu234   2.372       .  S
C235        C267   1.482       .  S
C236        C254   1.483       .  S
C237        C467   1.476       .  S
C238        C457   1.476       .  S
O239       Cu247   2.007       .  S
O239        C249   1.278       .  A
O240       Cu247   2.017       .  S
O240        C250   1.279       .  A
O241       Cu247   2.010       .  S
O241        C251   1.278       .  A
O242       Cu247   2.010       .  S
O242        C252   1.279       .  A
O243       Cu248   2.010       .  S
O243        C252   1.278       .  A
O244       Cu248   2.010       .  S
O244        C251   1.278       .  A
O245       Cu248   2.003       .  S
O245        C250   1.278       .  A
O246       Cu248   2.016       .  S
O246        C249   1.279       .  A
Cu247      Cu248   2.371       .  S
C249        C257   1.483       .  S
C250        C287   1.482       .  S
C251        C317   1.477       .  S
C252        C936   1.478       .  S
C253        C254   1.406       .  A
C253        C258   1.400   1_545  A
C253        H259   1.083       .  S
C254        C255   1.406       .  A
C255        C256   1.397   1_545  A
C255        H260   1.083       .  S
C256        C257   1.406       .  A
C256        H261   1.083       .  S
C257        C258   1.406       .  A
C258        H262   1.083       .  S
C263        C264   1.406       .  A
C263        C268   1.397       .  A
C263        H269   1.083       .  S
C264        C265   1.406       .  A
C265        C266   1.400       .  A
C265        H270   1.083       .  S
C266        C267   1.406       .  A
C266        H271   1.083       .  S
C267        C268   1.406       .  A
C268        H272   1.083       .  S
C273        C274   1.405       .  A
C273        C278   1.396       .  A
C273        H279   1.083       .  S
C274        C275   1.406       .  A
C275        C276   1.399       .  A
C275        H280   1.083       .  S
C276        C277   1.406       .  A
C276        H281   1.083       .  S
C277        C278   1.405       .  A
C278        H282   1.083       .  S
C283        C284   1.406       .  A
C283        C288   1.401       .  A
C283        H289   1.083       .  S
C284        C285   1.405       .  A
C285        C286   1.396       .  A
C285        H902   1.083       .  S
C286        C287   1.405       .  A
C286        H291   1.083       .  S
C287        C288   1.406       .  A
C288        H292   1.083       .  S
H290        C897   1.083       .  S
C293        C294   1.406       .  A
C293        C298   1.400   1_565  A
C293        H299   1.083       .  S
C294        C295   1.405       .  A
C295        C296   1.395   1_565  A
C295        H300   1.083       .  S
C296        C297   1.405       .  A
C296        H301   1.083       .  S
C297        C298   1.406       .  A
C298        H302   1.083       .  S
C303        C304   1.406       .  A
C303        C308   1.400       .  A
C303        H309   1.083       .  S
C304        C305   1.405       .  A
C305        C306   1.394       .  A
C305        H310   1.083       .  S
C306        C307   1.405       .  A
C306        H311   1.083       .  S
C307        C308   1.406       .  A
C308        H312   1.083       .  S
C313        C314   1.405       .  A
C313        C318   1.398       .  A
C313        H319   1.083       .  S
C314        C315   1.406       .  A
C315        C316   1.399       .  A
C315        H320   1.083       .  S
C316        C317   1.404       .  A
C316        H321   1.083       .  S
C317        C318   1.404       .  A
C318        H322   1.083       .  S
C323        C324   1.406       .  A
C323        C328   1.399       .  A
C323        H329   1.083       .  S
C324        C864   1.478   1_554  S
C324        C325   1.404       .  A
C325        C326   1.398       .  A
C325        H330   1.083       .  S
C326        C327   1.405       .  A
C326        H331   1.083       .  S
C327        C328   1.404       .  A
C328        H332   1.083       .  S
C333        C334   1.407       .  A
C333        C338   1.401       .  A
C333        H339   1.083       .  S
C334        C335   1.404       .  A
C335        C336   1.394       .  A
C335        H340   1.083       .  S
C336        C337   1.405       .  A
C336        H341   1.083       .  S
C337        C338   1.406       .  A
C338        H342   1.083       .  S
C343        C344   1.405       .  A
C343        C348   1.395       .  A
C343        H349   1.083       .  S
C344        C345   1.407       .  A
C345        C346   1.402       .  A
C345        H350   1.083       .  S
C346        C347   1.407       .  A
C346        H351   1.083   1_565  S
C347        C348   1.405       .  A
C348        H352   1.083       .  S
C353        C354   1.405       .  A
C353        C358   1.398       .  A
C353        H359   1.083       .  S
C354        C355   1.404   1_455  A
C355        C356   1.398       .  A
C355        H360   1.083       .  S
C356        C357   1.405   1_655  A
C356        H361   1.083       .  S
C357        C358   1.404       .  A
C358        H362   1.083       .  S
C363        C364   1.406       .  A
C363        C368   1.398       .  A
C363        H369   1.083       .  S
C364        C365   1.404   1_455  A
C365        C366   1.398       .  A
C365        H370   1.083       .  S
C366        C367   1.405   1_655  A
C366        H371   1.083       .  S
C367        C368   1.404       .  A
C368        H372   1.083       .  S
C373        C374   1.406       .  A
C373        C378   1.400       .  A
C373        H991   1.083       .  S
C374        C375   1.405       .  A
C375        C376   1.395       .  A
C375        H380   1.083       .  S
C376        C377   1.405       .  A
C376        H381   1.083       .  S
C377        C378   1.406       .  A
C378        H382   1.083       .  S
H379        C985   1.083       .  S
C383        C384   1.405       .  A
C383        C388   1.399       .  A
C383        H389   1.083       .  S
C384        C385   1.404       .  A
C385        C386   1.398       .  A
C385        H390   1.083       .  S
C386        C387   1.405       .  A
C386        H391   1.083       .  S
C387        C792   1.479       .  S
C387        C388   1.405       .  A
C388        H392   1.083       .  S
C393        C394   1.405       .  A
C393        C398   1.399       .  A
C393        H399   1.083       .  S
C394        C395   1.403       .  A
C395        C396   1.399       .  A
C395        H400   1.083       .  S
C396        C397   1.406       .  A
C396        H401   1.083       .  S
C397        C398   1.405       .  A
C398        H402   1.083       .  S
C403        C404   1.405       .  A
C403        C408   1.396       .  A
C403        H409   1.083       .  S
C404        C405   1.406       .  A
C405        C406   1.400       .  A
C405        H410   1.083       .  S
C406        C407   1.407       .  A
C406        H411   1.083       .  S
C407        C408   1.405       .  A
C408        H412   1.083       .  S
C413        C414   1.406       .  A
C413        C418   1.396       .  A
C413        H419   1.083       .  S
C414        C415   1.406       .  A
C415        C416   1.399       .  A
C415        H420   1.083       .  S
C416        C417   1.406       .  A
C416       H1033   1.083       .  S
C417        C418   1.405       .  A
C418        H422   1.083       .  S
H421       C1028   1.083       .  S
C423        C424   1.405       .  A
C423        C428   1.396       .  A
C423        H429   1.083       .  S
C424        C425   1.406       .  A
C425        C426   1.399       .  A
C425        H430   1.083       .  S
C426        C427   1.406       .  A
C426        H431   1.083       .  S
C427        C428   1.405       .  A
C428        H432   1.083       .  S
C433        C434   1.405       .  A
C433        C438   1.398       .  A
C433        H439   1.083       .  S
C434        C435   1.403       .  A
C435        C436   1.397       .  A
C435        H440   1.083       .  S
C436        C437   1.405       .  A
C436        H441   1.083       .  S
C437        C438   1.405       .  A
C438        H442   1.083       .  S
C443        C444   1.404       .  A
C443        C448   1.397       .  A
C443        H449   1.083       .  S
C444        C445   1.405       .  A
C445        C446   1.399       .  A
C445        H450   1.083       .  S
C446        C447   1.405       .  A
C446        H451   1.083       .  S
C447        C448   1.405       .  A
C448        H452   1.083       .  S
C453        C454   1.405       .  A
C453        C458   1.397       .  A
C453        H459   1.083       .  S
C454        C679   1.477       .  S
C454        C455   1.405       .  A
C455        C456   1.399       .  A
C455        H460   1.083       .  S
C456        C457   1.405       .  A
C456        H461   1.083       .  S
C457        C458   1.403       .  A
C458        H462   1.083       .  S
C463        C464   1.406       .  A
C463        C468   1.399       .  A
C463        H469   1.083       .  S
C464        C465   1.406       .  A
C465        C466   1.399       .  A
C465        H470   1.083       .  S
C466        C467   1.403       .  A
C466        H471   1.083       .  S
C467        C468   1.405       .  A
C468        H472   1.083       .  S
C473        C474   1.406       .  A
C473        C478   1.398       .  A
C473        H479   1.083       .  S
C474        C475   1.405       .  A
C475        C476   1.398       .  A
C475        H480   1.083       .  S
C476        C477   1.404       .  A
C476        H481   1.083       .  S
C477        C478   1.403       .  A
C478        H482   1.083       .  S
C483        C484   1.405       .  A
C483        C488   1.399       .  A
C483        H489   1.083       .  S
C484        C485   1.404       .  A
C485        C486   1.397       .  A
C485        H490   1.083       .  S
C486        C487   1.404       .  A
C486        H491   1.083       .  S
C487        C707   1.475   1_554  S
C487        C488   1.405       .  A
C488        H492   1.083       .  S
C493        C494   1.406       .  A
C493        C498   1.400   1_455  A
C493        H499   1.083       .  S
C494        C495   1.405       .  A
C495        C496   1.396   1_455  A
C495        H500   1.083       .  S
C496        C497   1.405       .  A
C496        H501   1.083       .  S
C497        C498   1.406       .  A
C498        H502   1.083       .  S
C503        C504   1.406       .  A
C503        C508   1.399       .  A
C503        H509   1.083       .  S
C504        C505   1.404       .  A
C505        C506   1.394       .  A
C505        H510   1.083       .  S
C506        C507   1.405       .  A
C506        H511   1.083       .  S
C507        C508   1.406       .  A
C508        H512   1.083       .  S
C513        C514   1.404       .  A
C513        C518   1.397       .  A
C513        H519   1.083       .  S
C514        C515   1.405   1_545  A
C515        C516   1.400       .  A
C515        H520   1.083       .  S
C516        C517   1.405   1_565  A
C516        H521   1.083       .  S
C517        C518   1.405       .  A
C518        H522   1.083       .  S
C523        C524   1.402   1_565  A
C523        C528   1.397       .  A
C523        H529   1.083       .  S
C524        C525   1.405       .  A
C525        C526   1.399       .  A
C525        H530   1.083       .  S
C526        C527   1.405       .  A
C526        H531   1.083       .  S
C527        C528   1.406   1_545  A
C528        H532   1.083       .  S
C533        C534   1.406       .  A
C533        C538   1.400       .  A
C533        H539   1.083       .  S
C534        C535   1.405       .  A
C535        C536   1.397       .  A
C535        H540   1.083       .  S
C536        C537   1.406       .  A
C536        H541   1.083       .  S
C537        C538   1.406       .  A
C538        H542   1.083       .  S
C543        C544   1.406       .  A
C543        C548   1.399       .  A
C543        H549   1.083       .  S
C544        C545   1.405       .  A
C545        C546   1.398       .  A
C545        H550   1.083       .  S
C546        C547   1.403       .  A
C546        H551   1.083       .  S
C547        C548   1.405       .  A
C548        H552   1.083       .  S
C553        C554   1.405       .  A
C553        C558   1.399       .  A
C553        H559   1.083       .  S
C554        C639   1.478   1_554  S
C554        C555   1.405       .  A
C555        C556   1.397       .  A
C555        H560   1.083       .  S
C556        C557   1.403       .  A
C556        H561   1.083       .  S
C557        C558   1.405       .  A
C558        H562   1.083       .  S
C563        C564   1.405       .  A
C563        C568   1.397       .  A
C563        H569   1.083       .  S
C564        C565   1.407       .  A
C565        C566   1.400       .  A
C565        H570   1.083       .  S
C566        C567   1.406       .  A
C566        H571   1.083   1_565  S
C567        C568   1.406       .  A
C568       H1184   1.083       .  S
H572       C1180   1.083       .  S
C573        C574   1.405       .  A
C573        C578   1.397       .  A
C573        H579   1.083       .  S
C574        C575   1.406       .  A
C575        C576   1.398       .  A
C575        H580   1.083       .  S
C576        C577   1.404       .  A
C576        H581   1.083       .  S
C577        C764   1.473       .  S
C577        C578   1.403       .  A
C578        H582   1.083       .  S
C583        C584   1.403       .  A
C583        C588   1.397       .  A
C583        H589   1.083       .  S
C584        C585   1.405       .  A
C585        C586   1.399       .  A
C585        H590   1.083       .  S
C586        C587   1.405       .  A
C586        H591   1.083       .  S
C587        C588   1.406       .  A
C588        H592   1.083       .  S
C593        C594   1.406       .  A
C593        C598   1.400       .  A
C593        H599   1.083       .  S
C594        C595   1.405       .  A
C595        C596   1.395       .  A
C595        H600   1.083       .  S
C596        C597   1.405       .  A
C596        H601   1.083       .  S
C597        C598   1.406       .  A
C598        H602   1.083       .  S
C603        C604   1.406       .  A
C603        C608   1.400   1_655  A
C603        H609   1.083       .  S
C604        C605   1.405       .  A
C605        C606   1.397   1_655  A
C605        H610   1.083       .  S
C606        C607   1.406       .  A
C606        H611   1.083       .  S
C607        C608   1.406       .  A
C608        H612   1.083       .  S
O613       Cu621   2.006       .  S
O613        C623   1.278       .  A
O614       Cu621   2.005       .  S
O614        C624   1.278       .  A
O615       Cu621   2.014       .  S
O615        C625   1.279       .  A
O616       Cu621   2.003       .  S
O616        C626   1.278       .  A
O617       Cu622   2.012       .  S
O617        C626   1.278       .  A
O618       Cu622   2.006       .  S
O618        C625   1.278       .  A
O619       Cu622   2.011       .  S
O619        C624   1.279       .  A
O620       Cu622   2.008       .  S
O620        C623   1.278       .  A
Cu621      Cu622   2.371       .  S
C623       C1186   1.477       .  S
C624       C1199   1.477       .  S
C625       C1216   1.482       .  S
C626       C1206   1.480       .  S
O627       Cu635   2.014       .  S
O627        C637   1.279       .  A
O628       Cu635   2.005       .  S
O628        C638   1.278       .  A
O629       Cu635   2.010       .  S
O629        C639   1.278       .  A
O630       Cu635   2.010       .  S
O630        C640   1.278       .  A
O631       Cu636   2.010       .  S
O631        C640   1.278       .  A
O632       Cu636   2.007       .  S
O632        C639   1.278       .  A
O633       Cu636   2.017       .  S
O633        C638   1.279       .  A
O634       Cu636   2.008       .  S
O634        C637   1.279       .  A
Cu635      Cu636   2.371       .  S
C637       C1176   1.483       .  S
C638       C1219   1.483       .  S
C640       C1156   1.479       .  S
O641       Cu649   2.013   1_556  S
O641        C651   1.278   1_565  A
O642        C652   1.279   1_565  A
O643       Cu649   2.003   1_556  S
O643        C653   1.278       .  A
O644        C654   1.279       .  A
O645        C654   1.278       .  A
O646       Cu650   2.019       .  S
O646        C653   1.280   1_545  A
O647        C652   1.277       .  A
O648       Cu650   2.004       .  S
O648        C651   1.278       .  A
Cu649      Cu650   2.372   1_564  S
C651       C1126   1.476       .  S
C652       C1136   1.474       .  S
C653       C1179   1.483       .  S
C654       C1146   1.482       .  S
O655       Cu663   2.007       .  S
O655        C665   1.278       .  A
O656       Cu663   2.009       .  S
O656        C666   1.278       .  A
O657       Cu663   2.003       .  S
O657        C667   1.278       .  A
O658       Cu663   2.010       .  S
O658        C668   1.278       .  A
O659       Cu664   2.001       .  S
O659        C668   1.278       .  A
O660       Cu664   2.013       .  S
O660        C667   1.279       .  A
O661       Cu664   2.007       .  S
O661        C666   1.278       .  A
O662       Cu664   2.008       .  S
O662        C665   1.278       .  A
Cu663      Cu664   2.372       .  S
C665       C1096   1.476       .  S
C666       C1086   1.478       .  S
C667       C1106   1.481       .  S
C668       C1116   1.479       .  S
O669       Cu677   2.013       .  S
O669        C679   1.279       .  A
O670       Cu677   2.013       .  S
O670        C680   1.279       .  A
O671       Cu677   2.015       .  S
O671        C681   1.279       .  A
O672       Cu677   2.003       .  S
O672        C682   1.278       .  A
O673       Cu678   2.014       .  S
O673        C682   1.279       .  A
O674       Cu678   2.006       .  S
O674        C681   1.278       .  A
O675       Cu678   2.008       .  S
O675        C680   1.278       .  A
O676       Cu678   2.006       .  S
O676        C679   1.278       .  A
Cu677      Cu678   2.371       .  S
C680       C1076   1.480       .  S
C681       C1149   1.483       .  S
C682       C1109   1.481       .  S
O683       Cu691   1.998       .  S
O683        C693   1.277       .  A
O684       Cu691   2.012       .  S
O684        C694   1.278       .  A
O685       Cu691   2.009       .  S
O685        C695   1.278       .  A
O686       Cu691   2.007       .  S
O686        C696   1.278       .  A
O687       Cu692   2.005       .  S
O687        C696   1.277       .  A
O688       Cu692   2.005       .  S
O688        C695   1.278       .  A
O689       Cu692   2.001       .  S
O689        C694   1.278       .  A
O690       Cu692   2.013       .  S
O690        C693   1.279       .  A
Cu691      Cu692   2.373       .  S
C693       C1119   1.479       .  S
C694       C1209   1.480       .  S
C695       C1056   1.475       .  S
C696       C1046   1.473       .  S
O697       Cu705   2.012       .  S
O697        C707   1.278       .  A
O698       Cu705   2.011       .  S
O698        C708   1.279       .  A
O699       Cu705   2.002       .  S
O699        C709   1.278       .  A
O700       Cu705   2.014       .  S
O700        C710   1.279       .  A
O701       Cu706   2.002       .  S
O701        C710   1.278       .  A
O702       Cu706   2.014       .  S
O702        C709   1.279       .  A
O703       Cu706   2.004       .  S
O703        C708   1.277       .  A
O704       Cu706   2.004       .  S
O704        C707   1.278       .  A
Cu705      Cu706   2.372       .  S
C708       C1089   1.474       .  S
C709       C1026   1.481       .  S
C710       C1036   1.481       .  S
O711       Cu719   2.009       .  S
O711        C721   1.278       .  A
O712       Cu719   2.008       .  S
O712        C722   1.278       .  A
O713       Cu719   1.999       .  S
O713        C723   1.277       .  A
O714       Cu719   2.012       .  S
O714        C724   1.279       .  A
O715       Cu720   2.005       .  S
O715        C724   1.278       .  A
O716       Cu720   2.018       .  S
O716        C723   1.279       .  A
O717       Cu720   2.011       .  S
O717        C722   1.278       .  A
O718       Cu720   2.012       .  S
O718        C721   1.279       .  A
Cu719      Cu720   2.372       .  S
C721       C1006   1.476       .  S
C722        C996   1.477       .  S
C723       C1016   1.481       .  S
C724       C1039   1.481       .  S
O725        C735   1.279       .  A
O726       Cu733   2.009   1_556  S
O726        C736   1.278       .  A
O727        C737   1.279   1_455  A
O728       Cu733   2.004   1_556  S
O728        C738   1.278       .  A
O729       Cu734   2.012   1_455  S
O729        C738   1.279       .  A
O730        C737   1.278       .  A
O731       Cu734   2.007       .  S
O731        C736   1.278   1_655  A
O732        C735   1.277   1_655  A
Cu733      Cu734   2.372   1_454  S
C735        C979   1.476       .  S
C736        C966   1.476       .  S
C737        C986   1.480       .  S
C738       C1029   1.480       .  S
O739       Cu747   2.008       .  S
O739        C749   1.278       .  A
O740       Cu747   2.007       .  S
O740        C750   1.277       .  A
O741       Cu747   2.017       .  S
O741        C751   1.279       .  A
O742       Cu747   2.004       .  S
O742        C752   1.278       .  A
O743       Cu748   2.014       .  S
O743        C752   1.278       .  A
O744       Cu748   2.003       .  S
O744        C751   1.278       .  A
O745       Cu748   2.013       .  S
O745        C750   1.279       .  A
O746       Cu748   2.014       .  S
O746        C749   1.279       .  A
Cu747      Cu748   2.371       .  S
C749        C926   1.479       .  S
C750        C939   1.477       .  S
C751        C956   1.482       .  S
C752        C946   1.481       .  S
O753       Cu761   2.008       .  S
O753        C763   1.277       .  A
O754       Cu761   2.006       .  S
O754        C764   1.278       .  A
O755       Cu761   1.998       .  S
O755        C765   1.277       .  A
O756       Cu761   2.012       .  S
O756        C766   1.278       .  A
O757       Cu762   2.004       .  S
O757        C766   1.278       .  A
O758       Cu762   2.018       .  S
O758        C765   1.279       .  A
O759       Cu762   2.008       .  S
O759        C764   1.277       .  A
O760       Cu762   2.007       .  S
O760        C763   1.278       .  A
Cu761      Cu762   2.373       .  S
C763       C1196   1.474       .  S
C765        C949   1.481       .  S
C766        C989   1.481       .  S
O767       Cu775   2.009       .  S
O767        C777   1.278       .  A
O768       Cu775   2.010       .  S
O768        C778   1.278       .  A
O769       Cu775   2.006       .  S
O769        C779   1.279       .  A
O770       Cu775   2.017       .  S
O770        C780   1.279   1_545  A
O771       Cu776   2.003       .  S
O771        C780   1.278       .  A
O772       Cu776   2.012   1_545  S
O772        C779   1.278       .  A
O773       Cu776   2.007       .  S
O773        C778   1.278   1_565  A
O774       Cu776   2.009       .  S
O774        C777   1.278   1_565  A
Cu775      Cu776   2.371   1_545  S
C777       C1129   1.478       .  S
C778       C1139   1.478       .  S
C779       C1019   1.481       .  S
C780        C959   1.482       .  S
O781       Cu789   2.009       .  S
O781        C791   1.278       .  A
O782       Cu789   2.011       .  S
O782        C792   1.278       .  A
O783       Cu789   2.003       .  S
O783        C793   1.278       .  A
O784       Cu789   2.013       .  S
O784        C794   1.278       .  A
O785       Cu790   2.000       .  S
O785        C794   1.278       .  A
O786       Cu790   2.011       .  S
O786        C793   1.278       .  A
O787       Cu790   2.011       .  S
O787        C792   1.278       .  A
O788       Cu790   2.011       .  S
O788        C791   1.279       .  A
Cu789      Cu790   2.371       .  S
C791       C1009   1.480       .  S
C793        C909   1.480       .  S
C794        C916   1.480       .  S
O795       Cu803   2.006   1_556  S
O795        C805   1.278       .  A
O796        C806   1.278       .  A
O797       Cu803   2.004   1_556  S
O797        C807   1.278       .  A
O798        C808   1.278       .  A
O799        C808   1.278       .  A
O800       Cu804   2.014       .  S
O800        C807   1.279       .  A
O801        C806   1.278       .  A
O802       Cu804   2.006       .  S
O802        C805   1.278       .  A
Cu803      Cu804   2.372   1_554  S
C805       C1049   1.476       .  S
C806       C1059   1.476       .  S
C807        C896   1.482       .  S
C808        C919   1.480       .  S
O809       Cu817   2.007       .  S
O809        C819   1.278       .  A
O810       Cu817   2.008       .  S
O810        C820   1.277       .  A
O811       Cu817   2.013       .  S
O811        C821   1.279       .  A
O812       Cu817   1.999       .  S
O812        C822   1.278       .  A
O813       Cu818   2.015       .  S
O813        C822   1.279       .  A
O814       Cu818   2.002       .  S
O814        C821   1.278       .  A
O815       Cu818   2.010       .  S
O815        C820   1.279       .  A
O816       Cu818   2.011       .  S
O816        C819   1.278       .  A
Cu817      Cu818   2.372       .  S
C819       C1159   1.476       .  S
C820       C1169   1.475       .  S
C821        C886   1.480       .  S
C822        C906   1.480       .  S
O823       Cu831   2.015       .  S
O823        C833   1.279   1_455  A
O824       Cu831   2.003       .  S
O824        C834   1.278       .  A
O825       Cu831   2.008       .  S
O825        C835   1.278       .  A
O826       Cu831   2.007       .  S
O826        C836   1.278   1_455  A
O827       Cu832   2.009       .  S
O827        C836   1.278       .  A
O828       Cu832   2.008       .  S
O828        C835   1.278   1_655  A
O829       Cu832   2.013       .  S
O829        C834   1.279   1_655  A
O830       Cu832   2.005       .  S
O830        C833   1.278       .  A
Cu831      Cu832   2.372   1_455  S
C833        C876   1.482       .  S
C834        C889   1.480       .  S
C835        C969   1.476       .  S
C836        C976   1.477   1_655  S
O837       Cu845   2.016       .  S
O837        C847   1.279       .  A
O838       Cu845   2.005       .  S
O838        C848   1.278       .  A
O839       Cu845   2.010       .  S
O839        C849   1.278       .  A
O840       Cu845   2.010       .  S
O840        C850   1.278       .  A
O841       Cu846   2.008       .  S
O841        C850   1.278       .  A
O842       Cu846   2.010       .  S
O842        C849   1.278       .  A
O843       Cu846   2.018       .  S
O843        C848   1.279       .  A
O844       Cu846   2.005       .  S
O844        C847   1.278       .  A
Cu845      Cu846   2.372       .  S
C847        C879   1.482       .  S
C848        C866   1.483       .  S
C849       C1079   1.476       .  S
C850       C1069   1.476       .  S
O851       Cu859   2.007       .  S
O851        C861   1.278       .  A
O852       Cu859   2.017       .  S
O852        C862   1.279       .  A
O853       Cu859   2.010       .  S
O853        C863   1.278       .  A
O854       Cu859   2.010       .  S
O854        C864   1.279       .  A
O855       Cu860   2.010       .  S
O855        C864   1.278       .  A
O856       Cu860   2.010       .  S
O856        C863   1.278       .  A
O857       Cu860   2.003       .  S
O857        C862   1.278       .  A
O858       Cu860   2.016       .  S
O858        C861   1.279       .  A
Cu859      Cu860   2.371       .  S
C861        C869   1.483       .  S
C862        C899   1.482       .  S
C863        C929   1.477       .  S
C865        C866   1.406       .  A
C865        C870   1.400   1_545  A
C865        H871   1.083       .  S
C866        C867   1.406       .  A
C867        C868   1.397   1_545  A
C867        H872   1.083       .  S
C868        C869   1.406       .  A
C868        H873   1.083       .  S
C869        C870   1.406       .  A
C870        H874   1.083       .  S
C875        C876   1.406       .  A
C875        C880   1.397       .  A
C875        H881   1.083       .  S
C876        C877   1.406       .  A
C877        C878   1.400       .  A
C877        H882   1.083       .  S
C878        C879   1.406       .  A
C878        H883   1.083       .  S
C879        C880   1.406       .  A
C880        H884   1.083       .  S
C885        C886   1.405       .  A
C885        C890   1.396       .  A
C885        H891   1.083       .  S
C886        C887   1.406       .  A
C887        C888   1.399       .  A
C887        H892   1.083       .  S
C888        C889   1.406       .  A
C888        H893   1.083       .  S
C889        C890   1.405       .  A
C890        H894   1.083       .  S
C895        C896   1.406       .  A
C895        C900   1.401       .  A
C895        H901   1.083       .  S
C896        C897   1.405       .  A
C897        C898   1.396       .  A
C898        C899   1.405       .  A
C898        H903   1.083       .  S
C899        C900   1.406       .  A
C900        H904   1.083       .  S
C905        C906   1.406       .  A
C905        C910   1.400   1_565  A
C905        H911   1.083       .  S
C906        C907   1.405       .  A
C907        C908   1.395   1_565  A
C907        H912   1.083       .  S
C908        C909   1.405       .  A
C908        H913   1.083       .  S
C909        C910   1.406       .  A
C910        H914   1.083       .  S
C915        C916   1.406       .  A
C915        C920   1.400       .  A
C915        H921   1.083       .  S
C916        C917   1.405       .  A
C917        C918   1.394       .  A
C917        H922   1.083       .  S
C918        C919   1.405       .  A
C918        H923   1.083       .  S
C919        C920   1.406       .  A
C920        H924   1.083       .  S
C925        C926   1.405       .  A
C925        C930   1.398       .  A
C925        H931   1.083       .  S
C926        C927   1.406       .  A
C927        C928   1.399       .  A
C927        H932   1.083       .  S
C928        C929   1.404       .  A
C928        H933   1.083       .  S
C929        C930   1.404       .  A
C930        H934   1.083       .  S
C935        C936   1.406       .  A
C935        C940   1.399       .  A
C935        H941   1.083       .  S
C936        C937   1.404       .  A
C937        C938   1.398       .  A
C937        H942   1.083       .  S
C938        C939   1.405       .  A
C938        H943   1.083       .  S
C939        C940   1.404       .  A
C940        H944   1.083       .  S
C945        C946   1.407       .  A
C945        C950   1.401       .  A
C945        H951   1.083       .  S
C946        C947   1.404       .  A
C947        C948   1.394       .  A
C947        H952   1.083       .  S
C948        C949   1.405       .  A
C948        H953   1.083       .  S
C949        C950   1.406       .  A
C950        H954   1.083       .  S
C955        C956   1.405       .  A
C955        C960   1.395       .  A
C955        H961   1.083       .  S
C956        C957   1.407       .  A
C957        C958   1.402       .  A
C957        H962   1.083       .  S
C958        C959   1.407       .  A
C958        H963   1.083   1_565  S
C959        C960   1.405       .  A
C960        H964   1.083       .  S
C965        C966   1.405       .  A
C965        C970   1.398       .  A
C965        H971   1.083       .  S
C966        C967   1.404   1_455  A
C967        C968   1.398       .  A
C967        H972   1.083       .  S
C968        C969   1.405   1_655  A
C968        H973   1.083       .  S
C969        C970   1.404       .  A
C970        H974   1.083       .  S
C975        C976   1.406       .  A
C975        C980   1.398       .  A
C975        H981   1.083       .  S
C976        C977   1.404   1_455  A
C977        C978   1.398       .  A
C977        H982   1.083       .  S
C978        C979   1.405   1_655  A
C978        H983   1.083       .  S
C979        C980   1.404       .  A
C980        H984   1.083       .  S
C985        C986   1.406       .  A
C985        C990   1.400       .  A
C986        C987   1.405       .  A
C987        C988   1.395       .  A
C987        H992   1.083       .  S
C988        C989   1.405       .  A
C988        H993   1.083       .  S
C989        C990   1.406       .  A
C990        H994   1.083       .  S
C995        C996   1.405       .  A
C995       C1000   1.399       .  A
C995       H1001   1.083       .  S
C996        C997   1.404       .  A
C997        C998   1.398       .  A
C997       H1002   1.083       .  S
C998        C999   1.405       .  A
C998       H1003   1.083       .  S
C999       C1000   1.405       .  A
C1000      H1004   1.083       .  S
C1005      C1006   1.405       .  A
C1005      C1010   1.399       .  A
C1005      H1011   1.083       .  S
C1006      C1007   1.403       .  A
C1007      C1008   1.399       .  A
C1007      H1012   1.083       .  S
C1008      C1009   1.406       .  A
C1008      H1013   1.083       .  S
C1009      C1010   1.405       .  A
C1010      H1014   1.083       .  S
C1015      C1016   1.405       .  A
C1015      C1020   1.396       .  A
C1015      H1021   1.083       .  S
C1016      C1017   1.406       .  A
C1017      C1018   1.400       .  A
C1017      H1022   1.083       .  S
C1018      C1019   1.407       .  A
C1018      H1023   1.083       .  S
C1019      C1020   1.405       .  A
C1020      H1024   1.083       .  S
C1025      C1026   1.406       .  A
C1025      C1030   1.396       .  A
C1025      H1031   1.083       .  S
C1026      C1027   1.406       .  A
C1027      C1028   1.399       .  A
C1027      H1032   1.083       .  S
C1028      C1029   1.406       .  A
C1029      C1030   1.405       .  A
C1030      H1034   1.083       .  S
C1035      C1036   1.405       .  A
C1035      C1040   1.396       .  A
C1035      H1041   1.083       .  S
C1036      C1037   1.406       .  A
C1037      C1038   1.399       .  A
C1037      H1042   1.083       .  S
C1038      C1039   1.406       .  A
C1038      H1043   1.083       .  S
C1039      C1040   1.405       .  A
C1040      H1044   1.083       .  S
C1045      C1046   1.405       .  A
C1045      C1050   1.398       .  A
C1045      H1051   1.083       .  S
C1046      C1047   1.403       .  A
C1047      C1048   1.397       .  A
C1047      H1052   1.083       .  S
C1048      C1049   1.405       .  A
C1048      H1053   1.083       .  S
C1049      C1050   1.405       .  A
C1050      H1054   1.083       .  S
C1055      C1056   1.404       .  A
C1055      C1060   1.397       .  A
C1055      H1061   1.083       .  S
C1056      C1057   1.405       .  A
C1057      C1058   1.399       .  A
C1057      H1062   1.083       .  S
C1058      C1059   1.405       .  A
C1058      H1063   1.083       .  S
C1059      C1060   1.405       .  A
C1060      H1064   1.083       .  S
C1065      C1066   1.405       .  A
C1065      C1070   1.397       .  A
C1065      H1071   1.083       .  S
C1066      C1067   1.405       .  A
C1067      C1068   1.399       .  A
C1067      H1072   1.083       .  S
C1068      C1069   1.405       .  A
C1068      H1073   1.083       .  S
C1069      C1070   1.403       .  A
C1070      H1074   1.083       .  S
C1075      C1076   1.406       .  A
C1075      C1080   1.399       .  A
C1075      H1081   1.083       .  S
C1076      C1077   1.406       .  A
C1077      C1078   1.399       .  A
C1077      H1082   1.083       .  S
C1078      C1079   1.403       .  A
C1078      H1083   1.083       .  S
C1079      C1080   1.405       .  A
C1080      H1084   1.083       .  S
C1085      C1086   1.406       .  A
C1085      C1090   1.398       .  A
C1085      H1091   1.083       .  S
C1086      C1087   1.405       .  A
C1087      C1088   1.398       .  A
C1087      H1092   1.083       .  S
C1088      C1089   1.404       .  A
C1088      H1093   1.083       .  S
C1089      C1090   1.403       .  A
C1090      H1094   1.083       .  S
C1095      C1096   1.405       .  A
C1095      C1100   1.399       .  A
C1095      H1101   1.083       .  S
C1096      C1097   1.404       .  A
C1097      C1098   1.397       .  A
C1097      H1102   1.083       .  S
C1098      C1099   1.404       .  A
C1098      H1103   1.083       .  S
C1099      C1100   1.405       .  A
C1100      H1104   1.083       .  S
C1105      C1106   1.406       .  A
C1105      C1110   1.400   1_455  A
C1105      H1111   1.083       .  S
C1106      C1107   1.405       .  A
C1107      C1108   1.396   1_455  A
C1107      H1112   1.083       .  S
C1108      C1109   1.405       .  A
C1108      H1113   1.083       .  S
C1109      C1110   1.406       .  A
C1110      H1114   1.083       .  S
C1115      C1116   1.406       .  A
C1115      C1120   1.399       .  A
C1115      H1121   1.083       .  S
C1116      C1117   1.404       .  A
C1117      C1118   1.394       .  A
C1117      H1122   1.083       .  S
C1118      C1119   1.405       .  A
C1118      H1123   1.083       .  S
C1119      C1120   1.406       .  A
C1120      H1124   1.083       .  S
C1125      C1126   1.404       .  A
C1125      C1130   1.397       .  A
C1125      H1131   1.083       .  S
C1126      C1127   1.405   1_545  A
C1127      C1128   1.400       .  A
C1127      H1132   1.083       .  S
C1128      C1129   1.405   1_565  A
C1128      H1133   1.083       .  S
C1129      C1130   1.405       .  A
C1130      H1134   1.083       .  S
C1135      C1136   1.402   1_565  A
C1135      C1140   1.397       .  A
C1135      H1141   1.083       .  S
C1136      C1137   1.405       .  A
C1137      C1138   1.399       .  A
C1137      H1142   1.083       .  S
C1138      C1139   1.405       .  A
C1138      H1143   1.083       .  S
C1139      C1140   1.406   1_545  A
C1140      H1144   1.083       .  S
C1145      C1146   1.406       .  A
C1145      C1150   1.400       .  A
C1145      H1151   1.083       .  S
C1146      C1147   1.405       .  A
C1147      C1148   1.397       .  A
C1147      H1152   1.083       .  S
C1148      C1149   1.406       .  A
C1148      H1153   1.083       .  S
C1149      C1150   1.406       .  A
C1150      H1154   1.083       .  S
C1155      C1156   1.406       .  A
C1155      C1160   1.399       .  A
C1155      H1161   1.083       .  S
C1156      C1157   1.405       .  A
C1157      C1158   1.398       .  A
C1157      H1162   1.083       .  S
C1158      C1159   1.403       .  A
C1158      H1163   1.083       .  S
C1159      C1160   1.405       .  A
C1160      H1164   1.083       .  S
C1165      C1166   1.405       .  A
C1165      C1170   1.399       .  A
C1165      H1171   1.083       .  S
C1166      C1167   1.405       .  A
C1167      C1168   1.397       .  A
C1167      H1172   1.083       .  S
C1168      C1169   1.403       .  A
C1168      H1173   1.083       .  S
C1169      C1170   1.405       .  A
C1170      H1174   1.083       .  S
C1175      C1176   1.405       .  A
C1175      C1180   1.397       .  A
C1175      H1181   1.083       .  S
C1176      C1177   1.407       .  A
C1177      C1178   1.400       .  A
C1177      H1182   1.083       .  S
C1178      C1179   1.406       .  A
C1178      H1183   1.083   1_565  S
C1179      C1180   1.406       .  A
C1185      C1186   1.405       .  A
C1185      C1190   1.397       .  A
C1185      H1191   1.083       .  S
C1186      C1187   1.406       .  A
C1187      C1188   1.398       .  A
C1187      H1192   1.083       .  S
C1188      C1189   1.404       .  A
C1188      H1193   1.083       .  S
C1189      C1190   1.403       .  A
C1190      H1194   1.083       .  S
C1195      C1196   1.403       .  A
C1195      C1200   1.397       .  A
C1195      H1201   1.083       .  S
C1196      C1197   1.405       .  A
C1197      C1198   1.399       .  A
C1197      H1202   1.083       .  S
C1198      C1199   1.405       .  A
C1198      H1203   1.083       .  S
C1199      C1200   1.406       .  A
C1200      H1204   1.083       .  S
C1205      C1206   1.406       .  A
C1205      C1210   1.400       .  A
C1205      H1211   1.083       .  S
C1206      C1207   1.405       .  A
C1207      C1208   1.395       .  A
C1207      H1212   1.083       .  S
C1208      C1209   1.405       .  A
C1208      H1213   1.083       .  S
C1209      C1210   1.406       .  A
C1210      H1214   1.083       .  S
C1215      C1216   1.406       .  A
C1215      C1220   1.400   1_655  A
C1215      H1221   1.083       .  S
C1216      C1217   1.405       .  A
C1217      C1218   1.397   1_655  A
C1217      H1222   1.083       .  S
C1218      C1219   1.406       .  A
C1218      H1223   1.083       .  S
C1219      C1220   1.406       .  A
C1220      H1224   1.083       .  S
