geometry optimzed in LAMMPS
_audit_creation_date              2020-12-01 
_audit_creation_method            'lammps2cif' 
_symmetry_space_group_name_H-M    'P1' 
_symmetry_Int_Tables_number       1 
_symmetry_cell_setting            triclinic 
loop_ 
_symmetry_equiv_pos_as_xyz 
  x,y,z 
_cell_length_a                    34.72409026 
_cell_length_b                    34.6203542198368 
_cell_length_c                    55.76425889724786 
_cell_angle_alpha                 90.21101177229723 
_cell_angle_beta                  90.03815723868509 
_cell_angle_gamma                 89.99806042034399 
loop_ 
_atom_site_label 
_atom_site_type_symbol 
_atom_site_fract_x 
_atom_site_fract_y 
_atom_site_fract_z 
_atom_site_charge 
O1          O  0.70536923  0.19609165  0.20664640    -0.56300
C2          C  0.64786775  0.14596244  0.15129786     0.76400
O3          O  0.72005173  0.23730080  0.13114090    -0.57400
C4          C  0.73616277  0.21438588  0.21106902     0.76300
C5          C  0.77804577  0.13660472  0.14776360     0.78700
Cd6        Cd  0.71701126  0.18812702  0.16346792     1.37500
O7          O  0.66092982  0.14502348  0.17251010    -0.56300
O8          O  0.75482794  0.12789818  0.16436259    -0.55100
C9          C  0.69733617  0.26046376  0.14166563     0.78700
O10         O  0.77398473  0.16999722  0.13890219    -0.57400
O11         O  0.66665288  0.16618605  0.13658749    -0.55900
O12         O  0.75884778  0.21947791  0.19358048    -0.55900
O13         O  0.68557417  0.25073310  0.16220635    -0.55100
O14         O  0.95404385  0.95325389  0.05546336    -0.56300
C15         C  0.89896540  0.89917515  0.10959310     0.76400
O16         O  0.99229399  0.96856318  0.13196846    -0.57400
C17         C  0.97189153  0.98429238  0.05094026     0.76300
C18         C  0.89262364  0.02729184  0.11245680     0.78700
Cd19       Cd  0.94489576  0.96652907  0.09843840     1.37500
O20         O  0.90051484  0.91247981  0.08849375    -0.56300
O21         O  0.88390297  0.00166284  0.09721613    -0.55100
C22         C  0.01706061  0.94835102  0.12090499     0.78700
O23         O  0.92676742  0.02653329  0.12049057    -0.57400
O24         O  0.91989329  0.91608938  0.12493885    -0.55900
O25         O  0.97586475  0.00773247  0.06826362    -0.55900
O26         O  0.00856895  0.93774317  0.09986283    -0.55100
O27         O  0.11128248  0.08781106  0.92081010    -0.56300
C28         C  0.03645293  0.01706006  0.95691060     0.76400
O29         O  0.01387004  0.03248209  0.87870493    -0.57400
C30         C  0.11562815  0.09955118  0.89950337     0.76300
C31         C  0.11363189  0.96984614  0.89610322     0.78700
Cd32       Cd  0.06548032  0.03496590  0.91001264     1.37500
O33         O  0.05671711  0.04682556  0.95310522    -0.56300
O34         O  0.12037767  0.98995800  0.91461818    -0.55100
C35         C  0.99387385  0.05910857  0.88818555     0.78700
O36         O  0.08340496  0.97869197  0.88461646    -0.57400
O37         O  0.03058968  0.99498213  0.93911729    -0.55900
O38         O  0.09682071  0.08155791  0.88358578    -0.55900
O39         O  0.00680086  0.07369621  0.90736137    -0.55100
O40         O  0.34530136  0.86556925  0.83794637    -0.56300
C41         C  0.27585059  0.78384507  0.80129081     0.76400
O42         O  0.29381735  0.75942688  0.87489253    -0.57400
C43         C  0.36021613  0.86486021  0.85870830     0.76300
C44         C  0.23203557  0.86227057  0.86340274     0.78700
Cd45       Cd  0.29612152  0.81568229  0.84720361     1.37500
O46         O  0.30479317  0.80582052  0.80379122    -0.56300
O47         O  0.25291745  0.87185119  0.84581201    -0.55100
C48         C  0.32317583  0.74334910  0.86564689     0.78700
O49         O  0.24054938  0.83063044  0.87349751    -0.57400
O50         O  0.25510722  0.77916091  0.81967358    -0.55900
O51         O  0.34531508  0.84163081  0.87350211    -0.55900
O52         O  0.33984439  0.76155453  0.84901276    -0.55100
O53         O  0.54632828  0.53246613  0.45198586    -0.56300
C54         C  0.60620702  0.58760063  0.39848950     0.76400
O55         O  0.57202812  0.46551909  0.38405343    -0.57400
C56         C  0.52187575  0.50559820  0.45433975     0.76300
C57         C  0.49002707  0.55561414  0.38378256     0.78700
Cd58       Cd  0.55554693  0.52354169  0.40845735     1.37500
O59         O  0.60073406  0.57658886  0.41987702    -0.56300
O60         O  0.50296211  0.56815794  0.40350567    -0.55100
C61         C  0.60293922  0.45800010  0.39521216     0.78700
O62         O  0.50621397  0.52552334  0.37549269    -0.57400
O63         O  0.58925331  0.56823010  0.38239747    -0.55900
O64         O  0.51356747  0.48664840  0.43556624    -0.55900
O65         O  0.61084934  0.47968063  0.41284559    -0.55100
O66         O  0.83837708  0.34780942  0.34533975    -0.56300
C67         C  0.77010106  0.27295242  0.30668689     0.76400
O68         O  0.78641197  0.25060528  0.38698850    -0.57400
C69         C  0.85390254  0.34560673  0.36583301     0.76300
C70         C  0.72214319  0.34854721  0.36760497     0.78700
Cd71       Cd  0.78705165  0.30031140  0.35440381     1.37500
O72         O  0.80113671  0.29068783  0.31137074    -0.56300
O73         O  0.74756372  0.35934665  0.35285456    -0.55100
C74         C  0.80825540  0.22757058  0.37561683     0.78700
O75         O  0.72666402  0.31514409  0.37640328    -0.57400
O76         O  0.74677848  0.26882915  0.32392150    -0.55900
O77         O  0.83803397  0.32359249  0.38090774    -0.55900
O78         O  0.81921483  0.23823940  0.35508231    -0.55100
O79         O  0.21186805  0.68410388  0.70908390    -0.56300
C80         C  0.15310938  0.62522072  0.65548308     0.76400
O81         O  0.21663414  0.72777319  0.63504720    -0.57400
C82         C  0.24147265  0.70528391  0.71116467     0.76300
C83         C  0.28098275  0.62815966  0.64847125     0.78700
Cd84       Cd  0.21778242  0.67503844  0.66528464     1.37500
O85         O  0.16681689  0.62792869  0.67649862    -0.56300
O86         O  0.26069126  0.61910427  0.66642391    -0.55100
C87         C  0.18947522  0.74616821  0.64514458     0.78700
O88         O  0.27249264  0.65978521  0.63837636    -0.57400
O89         O  0.16968975  0.64502427  0.63953266    -0.55900
O90         O  0.26106587  0.71023575  0.69230237    -0.55900
O91         O  0.17631094  0.73178869  0.66425925    -0.55100
O92         O  0.43576999  0.44229660  0.55198185    -0.56300
C93         C  0.38274832  0.38784780  0.60658157     0.76400
O94         O  0.48856638  0.44873114  0.62503286    -0.57400
C95         C  0.45821159  0.47041532  0.54808416     0.76300
C96         C  0.39109706  0.51499450  0.61338145     0.78700
Cd97       Cd  0.43457143  0.45015252  0.59569879     1.37500
O98         O  0.38310236  0.40284579  0.58592736    -0.56300
O99         O  0.38120380  0.49550762  0.59521318    -0.55100
C100        C  0.50745781  0.42315656  0.61373330     0.78700
O101        O  0.42241408  0.50525616  0.62334108    -0.57400
O102        O  0.40684613  0.40124687  0.62142136    -0.55900
O103        O  0.46870019  0.48991762  0.56620093    -0.55900
O104        O  0.49234349  0.41013791  0.59470461    -0.55100
O105        O  0.89402282  0.58577668  0.58867532    -0.56300
C106        C  0.97241124  0.51502245  0.55429816     0.76400
O107        O  0.98751725  0.53370376  0.63399996    -0.57400
C108        C  0.88976430  0.59875199  0.60976857     0.76300
C109        C  0.89257841  0.46784952  0.61090475     0.78700
Cd110      Cd  0.93999096  0.53415550  0.60023575     1.37500
O111        O  0.95076665  0.54415550  0.55715959    -0.56300
O112        O  0.88303879  0.49273513  0.59548353    -0.55100
C113        C  0.01039659  0.55683669  0.62364633     0.78700
O114        O  0.92447777  0.47351748  0.62139074    -0.57400
O115        O  0.97809185  0.49443522  0.57265807    -0.55900
O116        O  0.90909678  0.58212743  0.62596327    -0.55900
O117        O  0.99985974  0.56970405  0.60349240    -0.55100
O118        O  0.66564755  0.34750759  0.66133606    -0.56300
C119        C  0.74014846  0.27423299  0.69647614     0.76400
O120        O  0.71865618  0.25031890  0.61862638    -0.57400
C121        C  0.65161973  0.35066734  0.64047308     0.76300
C122        C  0.78094830  0.35006220  0.63595135     0.78700
Cd123      Cd  0.71770789  0.30181114  0.64991136     1.37500
O124        O  0.70811469  0.29073382  0.69278904    -0.56300
O125        O  0.75946531  0.35783166  0.65361442    -0.55100
C126        C  0.69599211  0.22838920  0.63009751     0.78700
O127        O  0.77356968  0.31917605  0.62455349    -0.57400
O128        O  0.76233006  0.27149668  0.67854008    -0.55900
O129        O  0.66833736  0.33136412  0.62423445    -0.55900
O130        O  0.68409352  0.24066906  0.65011610    -0.55100
O131        O  0.38900669  0.10295652  0.08388998    -0.56300
C132        C  0.46755623  0.02679380  0.04844129     0.76400
O133        O  0.48660592  0.05120167  0.12602204    -0.57400
C134        C  0.38531810  0.11465692  0.10535683     0.76300
C135        C  0.39344676  0.98498416  0.11045040     0.78700
Cd136      Cd  0.43648480  0.05086094  0.09437102     1.37500
O137        O  0.45052114  0.05893784  0.05107332    -0.56300
O138        O  0.38334996  0.00448941  0.09232676    -0.55100
C139        C  0.50652816  0.07721268  0.11603641     0.78700
O140        O  0.42397391  0.99564781  0.12102091    -0.57400
O141        O  0.46854360  0.00547580  0.06680028    -0.55900
O142        O  0.40458404  0.09661514  0.12091837    -0.55900
O143        O  0.49388915  0.09051050  0.09648168    -0.55100
O144        O  0.16847013  0.86565695  0.17182827    -0.56300
C145        C  0.23965971  0.78717031  0.20278023     0.76400
O146        O  0.21514611  0.77277267  0.12390543    -0.57400
C147        C  0.15561199  0.87264266  0.15103498     0.76300
C148        C  0.28498053  0.86853698  0.14265121     0.78700
Cd149      Cd  0.22000649  0.82138165  0.15741152     1.37500
O150        O  0.21482541  0.81380332  0.20115258    -0.56300
O151        O  0.26238640  0.87805717  0.15942454    -0.55100
C152        C  0.18711205  0.75496653  0.13339236     0.78700
O153        O  0.27829033  0.83615082  0.13282091    -0.57400
O154        O  0.25690458  0.77797540  0.18359439    -0.55900
O155        O  0.17275765  0.85637874  0.13372994    -0.55900
O156        O  0.17628449  0.76729435  0.15364507    -0.55100
O157        O  0.29158686  0.68307851  0.29561542    -0.56300
C158        C  0.35547002  0.63632172  0.34838209     0.76400
O159        O  0.29298214  0.72855728  0.37142027    -0.57400
C160        C  0.26468783  0.70749835  0.29312813     0.76300
C161        C  0.22451086  0.62884865  0.35774257     0.78700
Cd162      Cd  0.28531237  0.67838205  0.33947666     1.37500
O163        O  0.33811667  0.63279650  0.32848075    -0.56300
O164        O  0.24941004  0.61755375  0.34274778    -0.55100
C165        C  0.31270569  0.75089123  0.35821231     0.78700
O166        O  0.22637980  0.66410684  0.36388459    -0.57400
O167        O  0.34002319  0.65837411  0.36371785    -0.55900
O168        O  0.24504425  0.71525946  0.31165773    -0.55900
O169        O  0.31717490  0.74012595  0.33674808    -0.55100
O170        O  0.06195758  0.45030972  0.45737821    -0.56300
C171        C  0.11175811  0.39362342  0.39888437     0.76400
O172        O  0.00523447  0.45712945  0.38749336    -0.57400
C173        C  0.03961199  0.47863740  0.46115577     0.76300
C174        C  0.11257472  0.51923247  0.39582811     0.78700
Cd175      Cd  0.06399354  0.45765891  0.41335909     1.37500
O176        O  0.11100660  0.40505689  0.42053148    -0.56300
O177        O  0.12126890  0.49829867  0.41356454    -0.55100
C178        C  0.99315160  0.42506693  0.39558750     0.78700
O179        O  0.07959001  0.51350168  0.38663465    -0.57400
O180        O  0.09107937  0.41245887  0.38436866    -0.55900
O181        O  0.02997933  0.49811926  0.44293275    -0.55900
O182        O  0.01302390  0.40999028  0.41207867    -0.55100
O183        O  0.80645794  0.19276998  0.79541266    -0.56300
C184        C  0.85673901  0.13391437  0.85148858     0.76400
O185        O  0.79230787  0.23567359  0.86893340    -0.57400
C186        C  0.77521189  0.21008168  0.79071883     0.76300
C187        C  0.72981122  0.13415916  0.85298175     0.78700
Cd188      Cd  0.79292347  0.18295467  0.83822763     1.37500
O189        O  0.84508287  0.13521947  0.82995606    -0.56300
O190        O  0.75243409  0.12517928  0.83608393    -0.55100
C191        C  0.81794017  0.25557582  0.85847383     0.78700
O192        O  0.73455476  0.16732289  0.86228514    -0.57400
O193        O  0.83894986  0.15519834  0.86623289    -0.55900
O194        O  0.75145147  0.21294104  0.80786355    -0.55900
O195        O  0.83072839  0.24215738  0.83895016    -0.55100
O196        O  0.56113602  0.95399875  0.95498157    -0.56300
C197        C  0.62103193  0.89854115  0.90040586     0.76400
O198        O  0.51862762  0.96652178  0.88187201    -0.57400
C199        C  0.54284251  0.98529164  0.95804691     0.76300
C200        C  0.62011653  0.02471732  0.89306840     0.78700
Cd201      Cd  0.57201352  0.96349510  0.91147540     1.37500
O202        O  0.62202262  0.91413550  0.92100865    -0.56300
O203        O  0.63057488  0.00256241  0.90984746    -0.55100
C204        C  0.50000667  0.93891554  0.89124022     0.78700
O205        O  0.58600633  0.02025738  0.88543723    -0.57400
O206        O  0.59695842  0.91253237  0.88579342    -0.55900
O207        O  0.54091457  0.00720125  0.93999243    -0.55900
O208        O  0.51502321  0.92297991  0.90933408    -0.55100
O209        O  0.45073486  0.54465915  0.95161927    -0.56300
C210        C  0.39743620  0.60001382  0.89478144     0.76400
O211        O  0.50120251  0.53328891  0.87963628    -0.57400
C212        C  0.47198470  0.51544195  0.95515614     0.76300
C213        C  0.40048409  0.46868595  0.89240027     0.78700
Cd214      Cd  0.44551501  0.53486194  0.90782966     1.37500
O215        O  0.39580265  0.58530637  0.91553263    -0.56300
O216        O  0.39107526  0.48980569  0.90999631    -0.55100
C217        C  0.51892177  0.56071552  0.89003777     0.78700
O218        O  0.43139031  0.47795944  0.88176863    -0.57400
O219        O  0.42074540  0.58385734  0.88053641    -0.55900
O220        O  0.47935571  0.49471610  0.93699891    -0.55900
O221        O  0.50273576  0.57543565  0.90819692    -0.55100
O222        O  0.21049659  0.29628948  0.80355778    -0.56300
C223        C  0.15652057  0.35316993  0.85724701     0.76400
O224        O  0.22096283  0.25745531  0.87900986    -0.57400
C225        C  0.24127815  0.27791184  0.79918732     0.76300
C226        C  0.28918779  0.35328242  0.86135545     0.78700
Cd227      Cd  0.22366450  0.30718002  0.84648944     1.37500
O228        O  0.17282865  0.35630099  0.83702940    -0.56300
O229        O  0.26684146  0.36336578  0.84458680    -0.55100
C230        C  0.19847266  0.23525562  0.86746773     0.78700
O231        O  0.28185468  0.32114538  0.87118204    -0.57400
O232        O  0.17259586  0.33113788  0.87222194    -0.55900
O233        O  0.26456127  0.27488142  0.81656253    -0.55900
O234        O  0.18934677  0.24581975  0.84656616    -0.55100
O235        O  0.61647253  0.40725326  0.08466056    -0.56300
C236        C  0.54201202  0.47918570  0.04720171     0.76400
O237        O  0.51848011  0.46036229  0.12531938    -0.57400
C238        C  0.62067916  0.39671838  0.10624487     0.76300
C239        C  0.61790799  0.52470531  0.10818449     0.78700
Cd240      Cd  0.57031175  0.46015014  0.09417150     1.37500
O241        O  0.56344639  0.45002849  0.05048399    -0.56300
O242        O  0.62602387  0.50270389  0.09076039    -0.55100
C243        C  0.49966762  0.43281465  0.11587460     0.78700
O244        O  0.58615242  0.51836226  0.11866641    -0.57400
O245        O  0.53507266  0.49989490  0.06545055    -0.55900
O246        O  0.60194091  0.41559172  0.12177315    -0.55900
O247        O  0.51289574  0.41981199  0.09632710    -0.55100
O248        O  0.83841901  0.64236048  0.16680141    -0.56300
C249        C  0.76665275  0.71538291  0.20574802     0.76400
O250        O  0.78840552  0.74414442  0.12828398    -0.57400
C251        C  0.85332358  0.64446890  0.14610796     0.76300
C252        C  0.72700386  0.64045795  0.14159851     0.78700
Cd253      Cd  0.78745841  0.69072251  0.15827567     1.37500
O254        O  0.79818692  0.69829054  0.20148284    -0.56300
O255        O  0.75053732  0.63121171  0.15789587    -0.55100
C256        C  0.81328586  0.76376008  0.13976349     0.78700
O257        O  0.72984863  0.67446480  0.13335509    -0.57400
O258        O  0.74404650  0.71938287  0.18809063    -0.55900
O259        O  0.83766912  0.66774461  0.13167398    -0.55900
O260        O  0.82450859  0.75001346  0.15952801    -0.55100
O261        O  0.06025207  0.93736803  0.55141289    -0.56300
C262        C  0.11119426  0.88278837  0.60892822     0.76400
O263        O  0.07826329  0.00719143  0.61946438    -0.57400
C264        C  0.04004018  0.96707601  0.54714107     0.76300
C265        C  0.99079006  0.92791996  0.61451014     0.78700
Cd266      Cd  0.06476328  0.94880102  0.59497130     1.37500
O267        O  0.11215154  0.89541762  0.58763666    -0.56300
O268        O  0.00196712  0.91670312  0.59406031    -0.55100
C269        C  0.11074967  0.01407190  0.61008968     0.78700
O270        O  0.01359203  0.94965560  0.62610114    -0.57400
O271        O  0.08856666  0.90027136  0.62297801    -0.55900
O272        O  0.03309334  0.98909226  0.56478613    -0.55900
O273        O  0.12115019  0.99154639  0.59341679    -0.55100
O274        O  0.33761156  0.13038658  0.66549422    -0.56300
C275        C  0.26819655  0.20556353  0.70579448     0.76400
O276        O  0.27595230  0.23228889  0.62994370    -0.57400
C277        C  0.35128090  0.13325479  0.64450311     0.76300
C278        C  0.22207149  0.12770516  0.64332701     0.78700
Cd279      Cd  0.28454689  0.17713132  0.65821314     1.37500
O280        O  0.29971465  0.18902757  0.70076346    -0.56300
O281        O  0.24421914  0.11889917  0.66050023    -0.55100
C282        C  0.30494191  0.25039943  0.63809105     0.78700
O283        O  0.22826834  0.15997867  0.63338107    -0.57400
O284        O  0.24350989  0.20667492  0.68911440    -0.55900
O285        O  0.33303772  0.15454274  0.63005101    -0.55900
O286        O  0.32341961  0.23449219  0.65487450    -0.55100
O287        O  0.94438895  0.02801658  0.45363654    -0.56300
C288        C  0.88547476  0.08727135  0.40335720     0.76400
O289        O  0.98251059  0.02524613  0.37704043    -0.57400
C290        C  0.96673819  0.99931909  0.45576966     0.76300
C291        C  0.88697928  0.95691715  0.39585830     0.78700
Cd292      Cd  0.93469284  0.02118345  0.41044455     1.37500
O293        O  0.88954309  0.07275100  0.42401952    -0.56300
O294        O  0.87759063  0.97981018  0.41256640    -0.55100
C295        C  0.00455728  0.04837089  0.38820355     0.78700
O296        O  0.91910276  0.96332251  0.38585505    -0.57400
O297        O  0.90417589  0.07131090  0.38658488    -0.55900
O298        O  0.97252804  0.97923400  0.43710191    -0.55900
O299        O  0.99413969  0.05805214  0.40908578    -0.55100
O300        O  0.69841872  0.79402477  0.30471408    -0.56300
C301        C  0.64326370  0.85257480  0.35916844     0.76400
O302        O  0.70577055  0.74826798  0.37831357    -0.57400
C303        C  0.72945440  0.77576953  0.30087733     0.76300
C304        C  0.77181285  0.84570230  0.36530577     0.78700
Cd305      Cd  0.70709503  0.80116096  0.34834386     1.37500
O306        O  0.65819210  0.85150250  0.33846479    -0.56300
O307        O  0.75161684  0.85528861  0.34742652    -0.55100
C308        C  0.68124306  0.72813176  0.36696864     0.78700
O309        O  0.76234346  0.81461378  0.37569465    -0.57400
O310        O  0.65770507  0.82969403  0.37432104    -0.55900
O311        O  0.75080815  0.77047688  0.31899038    -0.55900
O312        O  0.66949444  0.74152090  0.34721720    -0.55100
O313        O  0.55346006  0.04049101  0.54751904    -0.56300
C314        C  0.61539251  0.09033130  0.60109473     0.76400
O315        O  0.50929167  0.03189369  0.62145105    -0.57400
C316        C  0.53099231  0.01225604  0.54386976     0.76300
C317        C  0.60586825  0.96327070  0.60649701     0.78700
Cd318      Cd  0.56178625  0.02887817  0.59074640     1.37500
O319        O  0.61052239  0.07782621  0.57994354    -0.56300
O320        O  0.61469104  0.98225382  0.58795549    -0.55100
C321        C  0.49210002  0.05972915  0.61129225     0.78700
O322        O  0.57508789  0.97314358  0.61707960    -0.57400
O323        O  0.59571776  0.07400944  0.61720383    -0.55900
O324        O  0.52493282  0.99031536  0.56161503    -0.55900
O325        O  0.50691701  0.07162466  0.59202131    -0.55100
O326        O  0.79763604  0.80052623  0.70111029    -0.56300
C327        C  0.84876455  0.85794573  0.64627455     0.76400
O328        O  0.78529624  0.75759986  0.62723536    -0.57400
C329        C  0.76609542  0.78403610  0.70611202     0.76300
C330        C  0.71905659  0.85389151  0.64160976     0.78700
Cd331      Cd  0.78394410  0.80950011  0.65810502     1.37500
O332        O  0.83444959  0.85793118  0.66716157    -0.56300
O333        O  0.74327691  0.86677130  0.65659415    -0.55100
C334        C  0.80787369  0.73622845  0.63917123     0.78700
O335        O  0.72435860  0.81958056  0.63432679    -0.57400
O336        O  0.83279082  0.83608293  0.63102138    -0.55900
O337        O  0.74185663  0.78175630  0.68919103    -0.49500
O338        O  0.81824529  0.74872224  0.65946177    -0.55100
O339        O  0.89441300  0.40628401  0.91508182    -0.56300
C340        C  0.97098586  0.47323716  0.95602173     0.76400
O341        O  0.99724219  0.45403344  0.87804817    -0.57400
C342        C  0.89525614  0.39328502  0.89379937     0.76300
C343        C  0.90090365  0.52456383  0.89288927     0.78700
Cd344      Cd  0.94401487  0.45690497  0.90802469     1.37500
O345        O  0.94847211  0.44512383  0.95197188    -0.56300
O346        O  0.88894775  0.50123032  0.90862563    -0.55100
C347        C  0.01516447  0.42729070  0.88885209     0.78700
O348        O  0.93359569  0.51700449  0.88390008    -0.57400
O349        O  0.97889393  0.49442948  0.93823525    -0.55900
O350        O  0.91796201  0.41016707  0.87958201    -0.55900
O351        O  0.00092504  0.41635213  0.90853692    -0.55100
O352        O  0.71078454  0.69501171  0.80505775    -0.56300
C353        C  0.65984456  0.63752796  0.86070934     0.76400
O354        O  0.78110029  0.67212278  0.87449724    -0.57400
C355        C  0.74016568  0.71540703  0.80051423     0.76300
C356        C  0.69970903  0.76015759  0.86827935     0.78700
Cd357      Cd  0.72434086  0.68703308  0.84846623     1.37500
O358        O  0.67410044  0.63758474  0.83980343    -0.56300
O359        O  0.68372252  0.74414610  0.85048385    -0.55100
C360        C  0.79054324  0.64147801  0.86346501     0.78700
O361        O  0.72786909  0.74224354  0.87755810    -0.57400
O362        O  0.67598193  0.65963901  0.87575442    -0.55900
O363        O  0.76300424  0.72079892  0.81790904    -0.55900
O364        O  0.77006905  0.63275836  0.84546610    -0.55100
O365        O  0.05640419  0.54719921  0.04974529    -0.56300
C366        C  0.10975752  0.61558133  0.10148298     0.76400
O367        O  0.01456008  0.54762609  0.12452823    -0.57400
C368        C  0.03620140  0.51676286  0.04847618     0.76300
C369        C  0.11524725  0.48723032  0.11218152     0.78700
Cd370      Cd  0.06553831  0.54615750  0.09346830     1.37500
O371        O  0.10837745  0.60054523  0.08071911    -0.56300
O372        O  0.12530821  0.50933209  0.09528175    -0.55100
C373        C  0.99457685  0.57263865  0.11355991     0.78700
O374        O  0.08125384  0.49121870  0.12004641    -0.57400
O375        O  0.09239674  0.59775819  0.11800844    -0.55900
O376        O  0.03053585  0.49920115  0.06800682    -0.55900
O377        O  0.00796919  0.58495900  0.09396488    -0.55100
O378        O  0.29475722  0.31035868  0.20633650    -0.56300
C379        C  0.35782080  0.36551029  0.15223861     0.76400
O380        O  0.28667980  0.27553675  0.13009169    -0.57400
C381        C  0.26474423  0.28950446  0.20748351     0.76300
C382        C  0.22689332  0.37743772  0.14941218     0.78700
Cd383      Cd  0.28774471  0.32445237  0.16309569     1.37500
O384        O  0.34482098  0.36585959  0.17350604    -0.56300
O385        O  0.25012614  0.38500025  0.16630393    -0.55100
C386        C  0.30909288  0.25225310  0.14076452     0.78700
O387        O  0.23097683  0.34480244  0.13935492    -0.57400
O388        O  0.33772528  0.34816003  0.13667548    -0.55900
O389        O  0.24433842  0.28765962  0.18870778    -0.55900
O390        O  0.32057509  0.26230690  0.16137105    -0.55100
O391        O  0.38917894  0.90189139  0.41416375    -0.56300
C392        C  0.45714835  0.98206950  0.45184073     0.76400
O393        O  0.48624281  0.96036835  0.37716069    -0.57400
C394        C  0.38675001  0.89168668  0.39235019     0.76300
C395        C  0.37977570  0.01913182  0.38943704     0.78700
Cd396      Cd  0.43037672  0.95886975  0.40536753     1.37500
O397        O  0.43607541  0.95245041  0.44911440    -0.56300
O398        O  0.37234206  0.99810563  0.40736868    -0.55100
C399        C  0.50407496  0.93335448  0.38779500     0.78700
O400        O  0.41201548  0.01363923  0.37928982    -0.57400
O401        O  0.46317751  0.00216473  0.43328947    -0.55900
O402        O  0.40263747  0.91359503  0.37720228    -0.55900
O403        O  0.48772203  0.91912430  0.40595239    -0.55100
O404        O  0.15075653  0.13383158  0.33235580    -0.56300
C405        C  0.22557953  0.20658018  0.29458824     0.76400
O406        O  0.20817493  0.23232973  0.37250907    -0.57400
C407        C  0.13865053  0.13164759  0.35375142     0.76300
C408        C  0.26608289  0.13036469  0.35680292     0.78700
Cd409      Cd  0.20413079  0.18011217  0.34176494     1.37500
O410        O  0.19528325  0.18696783  0.29801439    -0.56300
O411        O  0.24121925  0.12053315  0.34139636    -0.55100
C412        C  0.18205340  0.25283302  0.36302659     0.78700
O413        O  0.26351645  0.16443335  0.36504897    -0.57400
O414        O  0.24675332  0.21216209  0.31273897    -0.55900
O415        O  0.15608588  0.15253799  0.36892360    -0.55900
O416        O  0.16660574  0.23956746  0.34417331    -0.55100
C417        C  0.35127353  0.04783063  0.38056391    -0.03800
C418        C  0.36286232  0.08518705  0.37334705    -0.00900
C419        C  0.33512099  0.11250036  0.36581446     0.04100
C420        C  0.29566603  0.10245841  0.36514788    -0.03800
C421        C  0.28427760  0.06474367  0.37172639    -0.00900
C422        C  0.31189031  0.03757164  0.37925914     0.04100
C423        C  0.40331770  0.09562039  0.37368943     0.38700
C424        C  0.24391783  0.05373639  0.37098047     0.38700
C425        C  0.29979027  0.99830848  0.38445554     0.37100
C426        C  0.34748319  0.15031302  0.35776573     0.37100
N427        N  0.29019583  0.96695501  0.38841066    -0.37700
N428        N  0.35764354  0.18032677  0.35124037    -0.37700
N429        N  0.21182387  0.04479038  0.37025594    -0.37100
N430        N  0.43566413  0.10368377  0.37380951    -0.37100
C431        C  0.25449841  0.26710671  0.22935581    -0.03800
C432        C  0.21557381  0.26326698  0.23646858    -0.00900
C433        C  0.20592365  0.24179860  0.25707902     0.04100
C434        C  0.23507323  0.22399948  0.27091167    -0.03800
C435        C  0.27365295  0.22552686  0.26285779    -0.00900
C436        C  0.28337690  0.24718513  0.24230719     0.04100
C437        C  0.18524178  0.28227470  0.22302181     0.38700
C438        C  0.30309155  0.20299136  0.27490556     0.38700
C439        C  0.32295713  0.24742946  0.23391770     0.37100
C440        C  0.16585930  0.23892722  0.26426226     0.37100
N441        N  0.35446022  0.24755859  0.22714463    -0.37700
N442        N  0.13388048  0.23638411  0.26987519    -0.37700
N443        N  0.32651781  0.18462290  0.28425768    -0.37100
N444        N  0.16094507  0.29724762  0.21230044    -0.37100
C445        C  0.19719031  0.40579170  0.14130272    -0.03800
C446        C  0.15990514  0.39325116  0.13443884    -0.00900
C447        C  0.13279641  0.41984546  0.12523219     0.04100
C448        C  0.14273254  0.45915156  0.12269438    -0.03800
C449        C  0.17956838  0.47190027  0.12995021    -0.00900
C450        C  0.20657384  0.44549658  0.13929955     0.04100
C451        C  0.14907667  0.35301752  0.13704793     0.38700
C452        C  0.18966449  0.51250849  0.12792931     0.38700
C453        C  0.24460806  0.45936387  0.14578468     0.37100
C454        C  0.09528031  0.40637555  0.11733789     0.37100
N455        N  0.27480248  0.47097393  0.15082247    -0.37700
N456        N  0.06544126  0.39556059  0.11093744    -0.37700
N457        N  0.19747010  0.54487901  0.12617663    -0.37100
N458        N  0.14032745  0.32093636  0.13906172    -0.37100
C459        C  0.98815477  0.48100474  0.98012272    -0.03800
C460        C  0.02679647  0.49375746  0.98182683    -0.00900
C461        C  0.04233806  0.50523053  0.00409844     0.04100
C462        C  0.02007126  0.50261510  0.02523130    -0.03800
C463        C  0.98228532  0.48719424  0.02384151    -0.00900
C464        C  0.96635205  0.47664470  0.00137281     0.04100
C465        C  0.05144656  0.49347100  0.96080091     0.38700
C466        C  0.95892300  0.48373998  0.04530713     0.38700
C467        C  0.92704593  0.46251898  0.00015434     0.37100
C468        C  0.08175207  0.51912686  0.00521118     0.37100
N469        N  0.89572754  0.45116293  0.99920346    -0.37700
N470        N  0.11308253  0.53043541  0.00613311    -0.37700
N471        N  0.94014115  0.48089732  0.06235408    -0.37100
N472        N  0.07132667  0.49292767  0.94415233    -0.37100
C473        C  0.87711508  0.55857526  0.88550835    -0.03800
C474        C  0.87376541  0.56926941  0.86111534    -0.00900
C475        C  0.84699524  0.59793525  0.85411900     0.04100
C476        C  0.82307471  0.61612499  0.87134237    -0.03800
C477        C  0.82876472  0.60773296  0.89591092    -0.00900
C478        C  0.85561326  0.57920400  0.90291804     0.04100
C479        C  0.89656966  0.54984125  0.84292384     0.38700
C480        C  0.80600513  0.62721110  0.91410560     0.38700
C481        C  0.86138715  0.57134815  0.92822886     0.37100
C482        C  0.84452825  0.60917178  0.82911019     0.37100
N483        N  0.86622170  0.56495531  0.94836621    -0.37700
N484        N  0.84263468  0.61835362  0.80920671    -0.37700
N485        N  0.78805227  0.64272668  0.92872968    -0.37100
N486        N  0.91465959  0.53461120  0.82824872    -0.37100
C487        C  0.75850723  0.76714548  0.73032014    -0.03800
C488        C  0.73790896  0.73198449  0.73253778    -0.00900
C489        C  0.73303016  0.71454274  0.75522713     0.04100
C490        C  0.74705324  0.73281286  0.77627484    -0.03800
C491        C  0.76701523  0.76840624  0.77404639    -0.00900
C492        C  0.77332899  0.78496934  0.75124941     0.04100
C493        C  0.72273761  0.71265639  0.71138893     0.38700
C494        C  0.78035421  0.78899040  0.79520453     0.38700
C495        C  0.79456093  0.82099753  0.74954307     0.37100
C496        C  0.71516998  0.67669145  0.75655257     0.37100
N497        N  0.81173165  0.84956091  0.74820129    -0.37700
N498        N  0.70121698  0.64637066  0.75745053    -0.37700
N499        N  0.79099515  0.80560016  0.81199950    -0.37100
N500        N  0.71051006  0.69722453  0.69457797    -0.37100
C501        C  0.51183346  0.00573121  0.52022850    -0.03800
C502        C  0.53138107  0.01360331  0.49852916    -0.00900
C503        C  0.51317744  0.00678859  0.47626404     0.04100
C504        C  0.47516469  0.99191813  0.47536411    -0.03800
C505        C  0.45516680  0.98531828  0.49704215    -0.00900
C506        C  0.47320445  0.99261618  0.51930152     0.04100
C507        C  0.57059973  0.02810974  0.49889038     0.38700
C508        C  0.41542325  0.97232303  0.49655232     0.38700
C509        C  0.45099942  0.98871938  0.54122133     0.37100
C510        C  0.53441157  0.01397731  0.45428796     0.37100
N511        N  0.43317695  0.98598885  0.55866240    -0.37700
N512        N  0.55132304  0.01970659  0.43677923    -0.37700
N513        N  0.38372324  0.96198472  0.49616972    -0.37100
N514        N  0.60178843  0.03991967  0.49899232    -0.37100
C515        C  0.68668124  0.87845009  0.63295368    -0.03800
C516        C  0.67596557  0.87845608  0.60845044    -0.00900
C517        C  0.64876301  0.90546961  0.59989705     0.04100
C518        C  0.63140691  0.93220446  0.61579881    -0.03800
C519        C  0.64081215  0.93098418  0.64046574    -0.00900
C520        C  0.66812189  0.90417629  0.64899069     0.04100
C521        C  0.69391615  0.85180115  0.59170622     0.38700
C522        C  0.62434954  0.95892197  0.65701505     0.38700
C523        C  0.67687192  0.90302565  0.67445277     0.37100
C524        C  0.63892724  0.90592967  0.57459338     0.37100
N525        N  0.68387129  0.90208282  0.69473894    -0.37700
N526        N  0.63121151  0.90649630  0.55440172    -0.37700
N527        N  0.61149972  0.98121155  0.67030069    -0.37100
N528        N  0.70800188  0.83049600  0.57828357    -0.37100
C529        C  0.54201130  0.91814717  0.37964942    -0.03800
C530        C  0.57082776  0.90947157  0.39673198    -0.00900
C531        C  0.60497593  0.89054122  0.38968648     0.04100
C532        C  0.61018856  0.87845028  0.36558594    -0.03800
C533        C  0.58248512  0.88958211  0.34821021    -0.00900
C534        C  0.54864320  0.90939250  0.35523365     0.04100
C535        C  0.56544849  0.91980055  0.42177936     0.38700
C536        C  0.58781417  0.87970463  0.32313543     0.38700
C537        C  0.51958143  0.91857363  0.33742939     0.37100
C538        C  0.63516679  0.88463030  0.40734583     0.37100
N539        N  0.49636491  0.92581276  0.32323922    -0.37700
N540        N  0.65921632  0.88029095  0.42146472    -0.37700
N541        N  0.59202962  0.87210704  0.30307641    -0.37100
N542        N  0.56129205  0.92752432  0.44182261    -0.37100
C543        C  0.10593826  0.10606578  0.36107601    -0.03800
C544        C  0.07376214  0.09996984  0.34583814    -0.00900
C545        C  0.04124828  0.07928035  0.35416608     0.04100
C546        C  0.04065042  0.06430153  0.37771280    -0.03800
C547        C  0.07385548  0.06780008  0.39221858    -0.00900
C548        C  0.10616602  0.08860588  0.38403988     0.04100
C549        C  0.07290598  0.11667196  0.32202852     0.38700
C550        C  0.07500715  0.04960578  0.41565554     0.38700
C551        C  0.13978079  0.09161628  0.39943827     0.37100
C552        C  0.00751520  0.07549954  0.33895605     0.37100
N553        N  0.16643500  0.09400216  0.41182961    -0.37700
N554        N  0.98054241  0.07249649  0.32688548    -0.37700
N555        N  0.07593599  0.03508273  0.43431111    -0.37100
N556        N  0.07198464  0.12988600  0.30300111    -0.37100
C557        C  0.80451803  0.87033944  0.37345580    -0.03800
C558        C  0.82786949  0.88916728  0.35629505    -0.00900
C559        C  0.85530769  0.91687248  0.36357044     0.04100
C560        C  0.86091590  0.92496791  0.38819651    -0.03800
C561        C  0.83955909  0.90405375  0.40544981    -0.00900
C562        C  0.81098454  0.87744372  0.39813178     0.04100
C563        C  0.82379128  0.88005035  0.33097519     0.38700
C564        C  0.84712976  0.90962678  0.43084025     0.38700
C565        C  0.78684776  0.85925512  0.41608231     0.37100
C566        C  0.87595136  0.93861768  0.34546631     0.37100
N567        N  0.76752904  0.84506989  0.43048465    -0.37700
N568        N  0.89206696  0.95601442  0.33090505    -0.37700
N569        N  0.85330603  0.91394881  0.45107373    -0.37100
N570        N  0.82051730  0.87269457  0.31081235    -0.37100
C571        C  0.45669993  0.07833209  0.62117424    -0.03800
C572        C  0.45072720  0.11845839  0.61774821    -0.00900
C573        C  0.41638165  0.13610910  0.62550649     0.04100
C574        C  0.38770657  0.11415824  0.63714978    -0.03800
C575        C  0.39394265  0.07442303  0.64130000    -0.00900
C576        C  0.42819217  0.05647742  0.63321483     0.04100
C577        C  0.48029424  0.14221210  0.60673173     0.38700
C578        C  0.36438726  0.05159574  0.65295450     0.38700
C579        C  0.43309445  0.01520260  0.63638687     0.37100
C580        C  0.41111399  0.17737365  0.62202595     0.37100
N581        N  0.43691435  0.98225109  0.63889108    -0.37700
N582        N  0.40698934  0.21022759  0.61922417    -0.37700
N583        N  0.34078988  0.03338178  0.66222987    -0.37100
N584        N  0.50381895  0.16110538  0.59791232    -0.37100
C585        C  0.95307940  0.91526955  0.62429683    -0.03800
C586        C  0.95079830  0.89811576  0.64721364    -0.00900
C587        C  0.91585636  0.88164457  0.65513160     0.04100
C588        C  0.88326357  0.88123294  0.63991000    -0.03800
C589        C  0.88484303  0.90084448  0.61773008    -0.00900
C590        C  0.91956872  0.91791982  0.61001246     0.04100
C591        C  0.98493928  0.89517371  0.66210964     0.38700
C592        C  0.85041320  0.90449151  0.60313440     0.38700
C593        C  0.92064263  0.93897560  0.58755451     0.37100
C594        C  0.91402882  0.86373467  0.67858915     0.37100
N595        N  0.92152920  0.95603724  0.56975151    -0.37700
N596        N  0.91231273  0.84971343  0.69736769    -0.37700
N597        N  0.82289965  0.90767094  0.59157800    -0.37100
N598        N  0.01211354  0.89257991  0.67402468    -0.37100
C599        C  0.02368447  0.97495240  0.52297195    -0.03800
C600        C  0.00664158  0.94464412  0.50955403    -0.00900
C601        C  0.98804372  0.95246471  0.48758303     0.04100
C602        C  0.98628166  0.99065641  0.47881858    -0.03800
C603        C  0.00377533  0.02087415  0.49202750    -0.00900
C604        C  0.02233501  0.01309044  0.51398689     0.04100
C605        C  0.00599414  0.90566193  0.51904760     0.38700
C606        C  0.00330659  0.06007837  0.48282239     0.38700
C607        C  0.04039401  0.04450663  0.52712346     0.37100
C608        C  0.96873687  0.92143836  0.47477663     0.37100
N609        N  0.05456643  0.06980103  0.53749371    -0.37700
N610        N  0.95317274  0.89661682  0.46474427    -0.37700
N611        N  0.00269189  0.09125775  0.47540854    -0.37100
N612        N  0.00538554  0.87468173  0.52676711    -0.37100
C613        C  0.19115523  0.10098384  0.63491345    -0.03800
C614        C  0.18468506  0.09551408  0.61006815    -0.00900
C615        C  0.15717070  0.06840445  0.60199049     0.04100
C616        C  0.13620200  0.04593821  0.61861281    -0.03800
C617        C  0.14184754  0.05214184  0.64345349    -0.00900
C618        C  0.16913302  0.07950606  0.65156019     0.04100
C619        C  0.20788467  0.11608751  0.59262924     0.38700
C620        C  0.12096318  0.02903703  0.66079951     0.38700
C621        C  0.17436483  0.08542592  0.67713920     0.37100
C622        C  0.15031994  0.06395828  0.57644605     0.37100
N623        N  0.17844881  0.08992876  0.69756116    -0.37700
N624        N  0.14496148  0.06059607  0.55605786    -0.37700
N625        N  0.10429147  0.01052027  0.67456741    -0.37100
N626        N  0.22654088  0.13233610  0.57874151    -0.37100
C627        C  0.88773353  0.62164360  0.13884355    -0.03800
C628        C  0.89136464  0.60887948  0.11481358    -0.00900
C629        C  0.92622491  0.59283900  0.10666337     0.04100
C630        C  0.95715181  0.58709130  0.12277542    -0.03800
C631        C  0.95265612  0.59723033  0.14719345    -0.00900
C632        C  0.91834901  0.61510854  0.15511686     0.04100
C633        C  0.85906865  0.61172829  0.09833638     0.38700
C634        C  0.98421081  0.59172864  0.16391798     0.38700
C635        C  0.91583059  0.62905468  0.17963496     0.37100
C636        C  0.93025529  0.58282318  0.08145841     0.37100
N637        N  0.91401930  0.64041156  0.19915029    -0.37700
N638        N  0.93369732  0.57548843  0.06130512    -0.37700
N639        N  0.00932232  0.58738175  0.17729771    -0.37100
N640        N  0.83337846  0.61379167  0.08516754    -0.37100
C641        C  0.75705787  0.73066625  0.23008764    -0.03800
C642        C  0.76917082  0.71083106  0.25091096    -0.00900
C643        C  0.76041455  0.72557934  0.27392770     0.04100
C644        C  0.73980343  0.76073035  0.27651345    -0.03800
C645        C  0.72809145  0.78074966  0.25562774    -0.00900
C646        C  0.73650308  0.76577792  0.23263048     0.04100
C647        C  0.78969655  0.67441191  0.24880391     0.38700
C648        C  0.70806662  0.81744361  0.25756713     0.38700
C649        C  0.72488582  0.78751180  0.21159935     0.37100
C650        C  0.77137464  0.70330987  0.29485541     0.37100
N651        N  0.71552241  0.80490539  0.19489410    -0.37700
N652        N  0.78014886  0.68524190  0.31140495    -0.37700
N653        N  0.69199335  0.84665413  0.25896123    -0.37100
N654        N  0.80616421  0.64546053  0.24709800    -0.37100
C655        C  0.46441565  0.41562982  0.12704903    -0.03800
C656        C  0.43824199  0.43842990  0.14057343    -0.00900
C657        C  0.40417496  0.42179967  0.14997557     0.04100
C658        C  0.39552590  0.38260822  0.14545368    -0.03800
C659        C  0.42235856  0.35946929  0.13296100    -0.00900
C660        C  0.45667746  0.37566194  0.12403198     0.04100
C661        C  0.44535856  0.47932674  0.14413925     0.38700
C662        C  0.41512687  0.31838293  0.12991438     0.38700
C663        C  0.48454427  0.35048691  0.11244239     0.37100
C664        C  0.37753716  0.44532082  0.16371868     0.37100
N665        N  0.50675777  0.33033023  0.10329788    -0.37700
N666        N  0.35651816  0.46411909  0.17485097    -0.37700
N667        N  0.40925437  0.28566499  0.12765243    -0.37100
N668        N  0.45089433  0.51198143  0.14703345    -0.37100
C669        C  0.69872587  0.61182397  0.13229761    -0.03800
C670        C  0.71147271  0.57426565  0.12619160    -0.00900
C671        C  0.68502898  0.54612178  0.11825268     0.04100
C672        C  0.64537269  0.55508995  0.11635296    -0.03800
C673        C  0.63255823  0.59263823  0.12251412    -0.00900
C674        C  0.65921618  0.62101142  0.13024303     0.04100
C675        C  0.75212855  0.56459454  0.12770544     0.38700
C676        C  0.59203284  0.60230786  0.12065411     0.38700
C677        C  0.64578408  0.65925310  0.13686402     0.37100
C678        C  0.69866572  0.50732946  0.11298636     0.37100
N679        N  0.63513478  0.68978463  0.14217422    -0.37700
N680        N  0.70942920  0.47638953  0.10879985    -0.37700
N681        N  0.55967136  0.60998543  0.11925082    -0.37100
N682        N  0.78452743  0.55701428  0.12900165    -0.37100
C683        C  0.11943061  0.37238261  0.86322424    -0.03800
C684        C  0.11323240  0.41208417  0.85882156    -0.00900
C685        C  0.07901421  0.43019564  0.86687993     0.04100
C686        C  0.05050675  0.40855154  0.87903326    -0.03800
C687        C  0.05590514  0.36830204  0.88206402    -0.00900
C688        C  0.09005182  0.35041737  0.87418817     0.04100
C689        C  0.14229489  0.43459568  0.84650535     0.38700
C690        C  0.02580416  0.34464450  0.89258800     0.38700
C691        C  0.09410632  0.30878436  0.87639090     0.37100
C692        C  0.07395134  0.47139476  0.86345917     0.37100
N693        N  0.09716315  0.27559839  0.87794018    -0.37700
N694        N  0.06982493  0.50426789  0.86076258    -0.37700
N695        N  0.00190300  0.32566378  0.90093141    -0.37100
N696        N  0.16520096  0.45272594  0.83652521    -0.37100
C697        C  0.26098715  0.22371367  0.72973997    -0.03800
C698        C  0.23878912  0.25795218  0.73157731    -0.00900
C699        C  0.23291666  0.27592538  0.75406412     0.04100
C700        C  0.24912623  0.26000980  0.77516597    -0.03800
C701        C  0.27200452  0.22615093  0.77320881    -0.00900
C702        C  0.27762432  0.20806131  0.75073053     0.04100
C703        C  0.22325526  0.27604418  0.71018898     0.38700
C704        C  0.28968282  0.20918405  0.79428804     0.38700
C705        C  0.29996190  0.17263870  0.74945673     0.37100
C706        C  0.21154012  0.31195403  0.75507944     0.37100
N707        N  0.31784756  0.14446665  0.74845104    -0.37700
N708        N  0.19459420  0.34073067  0.75572113    -0.37700
N709        N  0.30412332  0.19566134  0.81098325    -0.37100
N710        N  0.21099222  0.29058483  0.69315519    -0.37100
C711        C  0.55662430  0.57570926  0.88156697    -0.03800
C712        C  0.56117002  0.58827030  0.85768549    -0.00900
C713        C  0.59529036  0.60738280  0.85059405     0.04100
C714        C  0.62547457  0.61373380  0.86731549    -0.03800
C715        C  0.62151728  0.59916057  0.89092363    -0.00900
C716        C  0.58719733  0.58058400  0.89801644     0.04100
C717        C  0.52969586  0.58380541  0.84075861     0.38700
C718        C  0.65281780  0.60281142  0.90805809     0.38700
C719        C  0.58340384  0.56623953  0.92235614     0.37100
C720        C  0.59800175  0.62258133  0.82643970     0.37100
N721        N  0.58030161  0.55482924  0.94174497    -0.37700
N722        N  0.60001528  0.63479596  0.80718809    -0.37700
N723        N  0.67764743  0.60563671  0.92181395    -0.37100
N724        N  0.50453438  0.58033724  0.82729870    -0.37100
C725        C  0.48853075  0.50628343  0.97912726    -0.03800
C726        C  0.50329978  0.53609928  0.99392651    -0.00900
C727        C  0.52175559  0.52713505  0.01576456     0.04100
C728        C  0.52489955  0.48832982  0.02338569    -0.03800
C729        C  0.50953547  0.45854717  0.00879480    -0.00900
C730        C  0.49153793  0.46746945  0.98678525     0.04100
C731        C  0.50045525  0.57616701  0.98655301     0.38700
C732        C  0.51052077  0.41873874  0.01687435     0.38700
C733        C  0.47453404  0.43666282  0.97255577     0.37100
C734        C  0.53860309  0.55801629  0.03000174     0.37100
N735        N  0.46086218  0.41215246  0.96123351    -0.37700
N736        N  0.55205331  0.58268206  0.04129574    -0.37700
N737        N  0.51117036  0.38702556  0.02336211    -0.37100
N738        N  0.49805636  0.60818884  0.98085291    -0.37100
C739        C  0.37574816  0.43552393  0.88453067    -0.03800
C740        C  0.37128340  0.42659317  0.85986346    -0.00900
C741        C  0.34441648  0.39829549  0.85240273     0.04100
C742        C  0.32138750  0.37878761  0.86941134    -0.03800
C743        C  0.32726664  0.38613809  0.89408755    -0.00900
C744        C  0.35440022  0.41410476  0.90161461     0.04100
C745        C  0.39265947  0.44786897  0.84187564     0.38700
C746        C  0.30371314  0.36666032  0.91181964     0.38700
C747        C  0.36005576  0.42074395  0.92709846     0.37100
C748        C  0.34049291  0.38928032  0.82707386     0.37100
N749        N  0.36435730  0.42596885  0.94743826    -0.37700
N750        N  0.33738832  0.38207102  0.80688114    -0.37700
N751        N  0.28476190  0.35122393  0.92590808    -0.37100
N752        N  0.40958273  0.46485371  0.82747764    -0.37100
C753        C  0.64633914  0.86552042  0.89329498    -0.03800
C754        C  0.65829148  0.86178702  0.86911435    -0.00900
C755        C  0.67658671  0.82777014  0.86113760     0.04100
C756        C  0.68530394  0.79789156  0.87747488    -0.03800
C757        C  0.67695030  0.80317131  0.90207870    -0.00900
C758        C  0.65692098  0.83651944  0.90991988     0.04100
C759        C  0.65239218  0.89323524  0.85232296     0.38700
C760        C  0.68672999  0.77322694  0.91916658     0.38700
C761        C  0.64536860  0.83962795  0.93484780     0.37100
C762        C  0.68602894  0.82352527  0.83589077     0.37100
N763        N  0.63607842  0.84192407  0.95473254    -0.37700
N764        N  0.69303506  0.82026595  0.81569631    -0.37700
N765        N  0.69456117  0.74941930  0.93284725    -0.37100
N766        N  0.64784145  0.91839271  0.83900207    -0.37100
C767        C  0.87164853  0.35961159  0.88570010    -0.03800
C768        C  0.86505330  0.32787739  0.90112239    -0.00900
C769        C  0.84554411  0.29467919  0.89262461     0.04100
C770        C  0.83333926  0.29240646  0.86846882    -0.03800
C771        C  0.83910307  0.32442905  0.85322037    -0.00900
C772        C  0.85763609  0.35797610  0.86184713     0.04100
C773        C  0.88061210  0.32808356  0.92528319     0.38700
C774        C  0.82588956  0.32303504  0.82851021     0.38700
C775        C  0.86192807  0.39095025  0.84604013     0.37100
C776        C  0.84019843  0.26191423  0.90842738     0.37100
N777        N  0.86539570  0.41723401  0.83345498    -0.37700
N778        N  0.83591768  0.23579100  0.92103836    -0.37700
N779        N  0.81561130  0.32198723  0.80877003    -0.37100
N780        N  0.89329344  0.32825127  0.94448375    -0.37100
C781        C  0.70072061  0.10618234  0.86216028    -0.03800
C782        C  0.71166394  0.06743752  0.86646653    -0.00900
C783        C  0.68543855  0.04129112  0.87684472     0.04100
C784        C  0.64740275  0.05305686  0.88232258    -0.03800
C785        C  0.63594361  0.09138027  0.87719160    -0.00900
C786        C  0.66262280  0.11792754  0.86738788     0.04100
C787        C  0.75030859  0.05434083  0.86066092     0.38700
C788        C  0.59707313  0.10395910  0.88264996     0.38700
C789        C  0.65048662  0.15701467  0.86194131     0.37100
C790        C  0.69768431  0.00188673  0.88151362     0.37100
N791        N  0.64088084  0.18818420  0.85747451    -0.37700
N792        N  0.70746951  0.97056359  0.88539588    -0.37700
N793        N  0.56607213  0.11408609  0.88697699    -0.37100
N794        N  0.78097713  0.04376455  0.85585081    -0.37100
C795        C  0.16943536  0.29046732  0.37326929    -0.03800
C796        C  0.16521664  0.32275738  0.35810892    -0.00900
C797        C  0.14815258  0.35705639  0.36676908     0.04100
C798        C  0.13460204  0.35934810  0.39074216    -0.03800
C799        C  0.14103112  0.32764177  0.40628926    -0.00900
C800        C  0.15877811  0.29358788  0.39762651     0.04100
C801        C  0.17914987  0.32091420  0.33356657     0.38700
C802        C  0.12744050  0.32881908  0.43088374     0.38700
C803        C  0.16430522  0.26104404  0.41358382     0.37100
C804        C  0.14495468  0.38997101  0.35081826     0.37100
N805        N  0.16883959  0.23516587  0.42635785    -0.37700
N806        N  0.14244266  0.41605413  0.33798281    -0.37700
N807        N  0.11651356  0.32969252  0.45048349    -0.37100
N808        N  0.19039754  0.31942240  0.31404940    -0.37100
C809        C  0.33111154  0.78715367  0.36723645    -0.03800
C810        C  0.36675960  0.79945574  0.35742483    -0.00900
C811        C  0.38515037  0.83278041  0.36630142     0.04100
C812        C  0.36775548  0.85525473  0.38452065    -0.03800
C813        C  0.33246870  0.84297217  0.39456775    -0.00900
C814        C  0.31406228  0.80927465  0.38582780     0.04100
C815        C  0.38552175  0.77766015  0.33841468     0.38700
C816        C  0.31464374  0.86518510  0.41367137     0.38700
C817        C  0.27665456  0.79857604  0.39526849     0.37100
C818        C  0.42329225  0.84262142  0.35745567     0.37100
N819        N  0.24670406  0.79019514  0.40271014    -0.37700
N820        N  0.45377789  0.85015001  0.35052180    -0.37700
N821        N  0.30040084  0.88259098  0.42904679    -0.37100
N822        N  0.40070271  0.76060325  0.32323347    -0.37100
C823        C  0.19549518  0.60149164  0.36785394    -0.03800
C824        C  0.15626765  0.61200028  0.37009458    -0.00900
C825        C  0.12896415  0.58521199  0.37898190     0.04100
C826        C  0.14068292  0.54779383  0.38603238    -0.03800
C827        C  0.18000965  0.53745786  0.38394903    -0.00900
C828        C  0.20716671  0.56411282  0.37505417     0.04100
C829        C  0.14372809  0.65015776  0.36282822     0.38700
C830        C  0.19267999  0.49882641  0.39033667     0.38700
C831        C  0.24754795  0.55326038  0.37422589     0.37100
C832        C  0.08897444  0.59663136  0.38143139     0.37100
N833        N  0.27969242  0.54446392  0.37374700    -0.37700
N834        N  0.05707442  0.60580296  0.38337931    -0.37700
N835        N  0.20273917  0.46805954  0.39545065    -0.37100
N836        N  0.13372558  0.68064470  0.35708856    -0.37100
C837        C  0.16703372  0.72152793  0.12186342    -0.03800
C838        C  0.18737292  0.69304842  0.10864603    -0.00900
C839        C  0.16829217  0.65908906  0.10076495     0.04100
C840        C  0.12916076  0.65300986  0.10655997    -0.03800
C841        C  0.10842909  0.68237860  0.11852115    -0.00900
C842        C  0.12693284  0.71679888  0.12551886     0.04100
C843        C  0.22819553  0.69767289  0.10402031     0.38700
C844        C  0.06773693  0.67722963  0.12368002     0.38700
C845        C  0.10415112  0.74779580  0.13595223     0.37100
C846        C  0.18937532  0.62949885  0.08780646     0.37100
N847        N  0.08587754  0.77253569  0.14409429    -0.37700
N848        N  0.20600040  0.60578665  0.07741992    -0.37700
N849        N  0.03539667  0.67296169  0.12792658    -0.37100
N850        N  0.26077781  0.70133113  0.10029459    -0.37100
C851        C  0.24722057  0.76695855  0.22585265    -0.03800
C852        C  0.24772168  0.78776993  0.24772083    -0.00900
C853        C  0.25277528  0.76820226  0.26966438     0.04100
C854        C  0.25780501  0.72760132  0.26998558    -0.03800
C855        C  0.25828306  0.70693256  0.24811360    -0.00900
C856        C  0.25263071  0.72639790  0.22619156     0.04100
C857        C  0.24476106  0.82961024  0.24767010     0.38700
C858        C  0.26369342  0.66536968  0.24811508     0.38700
C859        C  0.25097868  0.70420006  0.20407752     0.37100
C860        C  0.25471496  0.79032182  0.29182437     0.37100
N861        N  0.24961622  0.68645796  0.18646452    -0.37700
N862        N  0.25637263  0.80800216  0.30945511    -0.37700
N863        N  0.26814983  0.63224187  0.24805754    -0.37100
N864        N  0.24260868  0.86297424  0.24765691    -0.37100
C865        C  0.32262583  0.21538344  0.12982931    -0.03800
C866        C  0.33903797  0.21501157  0.10664601    -0.00900
C867        C  0.35871791  0.18185464  0.09820535     0.04100
C868        C  0.36051930  0.14809355  0.11243252    -0.03800
C869        C  0.34093561  0.14751516  0.13471764    -0.00900
C870        C  0.32281743  0.18115438  0.14356009     0.04100
C871        C  0.33754421  0.24946605  0.09194883     0.38700
C872        C  0.33910848  0.11215182  0.14860441     0.38700
C873        C  0.30407748  0.18035493  0.16683795     0.37100
C874        C  0.37947442  0.18376760  0.07567834     0.37100
N875        N  0.28919688  0.17958682  0.18539562    -0.37700
N876        N  0.39625063  0.18563595  0.05779725    -0.37700
N877        N  0.33760917  0.08388290  0.15959270    -0.37100
N878        N  0.33609438  0.27694517  0.08021981    -0.37100
C879        C  0.48611741  0.01501192  0.02526129    -0.03800
C880        C  0.51942903  0.99121370  0.02515665    -0.00900
C881        C  0.53809287  0.98173801  0.00337983     0.04100
C882        C  0.52357670  0.99546721  0.98125824    -0.03800
C883        C  0.48962775  0.01830072  0.98131736    -0.00900
C884        C  0.47126802  0.02815991  0.00309482     0.04100
C885        C  0.53563754  0.97713366  0.04748895     0.38700
C886        C  0.47236645  0.03079011  0.95890185     0.38700
C887        C  0.43622028  0.05100460  0.00239088     0.37100
C888        C  0.57305303  0.95872681  0.00405955     0.37100
N889        N  0.40833288  0.06927734  0.00167487    -0.37700
N890        N  0.60089043  0.94036651  0.00476918    -0.37700
N891        N  0.45855139  0.04071891  0.94106108    -0.37100
N892        N  0.54870302  0.96567908  0.06519038    -0.37100
C893        C  0.36988944  0.95194221  0.11908329    -0.03800
C894        C  0.35387721  0.92547920  0.10251716    -0.00900
C895        C  0.32691366  0.89756138  0.11016629     0.04100
C896        C  0.31673789  0.89481763  0.13472869    -0.03800
C897        C  0.33522313  0.91951095  0.15152773    -0.00900
C898        C  0.36117657  0.94822577  0.14370699     0.04100
C899        C  0.36535222  0.92688060  0.07749183     0.38700
C900        C  0.32755714  0.91576846  0.17700336     0.38700
C901        C  0.37708568  0.97540543  0.16096434     0.37100
C902        C  0.30797041  0.87358502  0.09232891     0.37100
N903        N  0.38961569  0.99721340  0.17468330    -0.37700
N904        N  0.29280657  0.85484920  0.07791523    -0.37700
N905        N  0.32157077  0.91300706  0.19734159    -0.37100
N906        N  0.37480131  0.92809171  0.05760646    -0.37100
C907        C  0.64176311  0.12311642  0.60685453    -0.03800
C908        C  0.64651927  0.15406097  0.59052285    -0.00900
C909        C  0.66714376  0.18747108  0.59740517     0.04100
C910        C  0.68255889  0.19054563  0.62075185    -0.03800
C911        C  0.68061646  0.15852948  0.63632685    -0.00900
C912        C  0.66039679  0.12497504  0.62945320     0.04100
C913        C  0.62787678  0.15310026  0.56723302     0.38700
C914        C  0.69935016  0.16010672  0.65960970     0.38700
C915        C  0.65869252  0.09261906  0.64592903     0.37100
C916        C  0.67019492  0.21969823  0.58094533     0.37100
N917        N  0.65741863  0.06710729  0.65926393    -0.37700
N918        N  0.67267640  0.24537482  0.56780602    -0.37700
N919        N  0.71415275  0.16114055  0.67819891    -0.37100
N920        N  0.61289187  0.15246719  0.54869084    -0.37100
C921        C  0.76708706  0.22681550  0.76653894    -0.03800
C922        C  0.74466477  0.26085628  0.76438889    -0.00900
C923        C  0.73674821  0.27668484  0.74162835     0.04100
C924        C  0.75076178  0.25864054  0.72055656    -0.03800
C925        C  0.77420121  0.22528224  0.72270927    -0.00900
C926        C  0.78240595  0.20960770  0.74551760     0.04100
C927        C  0.73079390  0.28090767  0.78560967     0.38700
C928        C  0.78933604  0.20611555  0.70151312     0.38700
C929        C  0.80609302  0.17513032  0.74710399     0.37100
C930        C  0.71534069  0.31265480  0.74011649     0.37100
N931        N  0.82517759  0.14779606  0.74834307    -0.37700
N932        N  0.69837487  0.34135584  0.73886563    -0.37700
N933        N  0.80162638  0.19063346  0.68474956    -0.37100
N934        N  0.71966536  0.29712295  0.80241933    -0.37100
C935        C  0.86384431  0.63183896  0.61555727    -0.03800
C936        C  0.84468713  0.63298951  0.63794444    -0.00900
C937        C  0.82542169  0.66673908  0.64539857     0.04100
C938        C  0.82292626  0.69891808  0.62995380    -0.03800
C939        C  0.83863435  0.69643353  0.60663413    -0.00900
C940        C  0.85970575  0.66335487  0.59961484     0.04100
C941        C  0.84416131  0.59919888  0.65330813     0.38700
C942        C  0.83550460  0.72898663  0.59041088     0.38700
C943        C  0.87906203  0.66312480  0.57657033     0.37100
C944        C  0.80885175  0.66836985  0.66928079     0.37100
N945        N  0.89457133  0.66326562  0.55820751    -0.37700
N946        N  0.79632542  0.66942645  0.68849199    -0.37700
N947        N  0.83287576  0.75499554  0.57752828    -0.37100
N948        N  0.84349991  0.57219472  0.66547898    -0.37100
C949        C  0.99052318  0.50563704  0.53072311    -0.03800
C950        C  0.99604497  0.46671259  0.52358840    -0.00900
C951        C  0.01254066  0.45795067  0.50106848     0.04100
C952        C  0.02442281  0.48793364  0.48553679    -0.03800
C953        C  0.01986566  0.52679237  0.49295618    -0.00900
C954        C  0.00274552  0.53559946  0.51527566     0.04100
C955        C  0.98330645  0.43536185  0.53890139     0.38700
C956        C  0.03373829  0.55801496  0.47796344     0.38700
C957        C  0.99857617  0.57575111  0.52245294     0.37100
C958        C  0.01526783  0.41789514  0.49344372     0.37100
N959        N  0.99505172  0.60774538  0.52813747    -0.37700
N960        N  0.01722907  0.38595798  0.48735563    -0.37700
N961        N  0.04479234  0.58312758  0.46618121    -0.37100
N962        N  0.97323644  0.41034791  0.55110542    -0.37100
C963        C  0.86699501  0.43454295  0.61677032    -0.03800
C964        C  0.86388902  0.42144027  0.64071631    -0.00900
C965        C  0.83656879  0.39298868  0.64679385     0.04100
C966        C  0.81259161  0.37660303  0.62897481    -0.03800
C967        C  0.81716846  0.38787463  0.60482902    -0.00900
C968        C  0.84395730  0.41694691  0.59875947     0.04100
C969        C  0.88754375  0.43825938  0.65951474     0.38700
C970        C  0.79296891  0.37094959  0.58631578     0.38700
C971        C  0.84763119  0.42849928  0.57386398     0.37100
C972        C  0.83313154  0.38068760  0.67157365     0.37100
N973        N  0.85023048  0.43759560  0.55397662    -0.37700
N974        N  0.83033995  0.37109797  0.69135712    -0.37700
N975        N  0.77364435  0.35733940  0.57162381    -0.37100
N976        N  0.90646235  0.45149293  0.67453511    -0.37100
C977        C  0.54575065  0.40917664  0.62185815    -0.03800
C978        C  0.55137501  0.39590710  0.64552362    -0.00900
C979        C  0.58678387  0.37880893  0.65219037     0.04100
C980        C  0.61679167  0.37460716  0.63512648    -0.03800
C981        C  0.61219439  0.39139016  0.61216461    -0.00900
C982        C  0.57666606  0.40786736  0.60544032     0.04100
C983        C  0.52003703  0.39780926  0.66268881     0.38700
C984        C  0.64449542  0.39336176  0.59570101     0.38700
C985        C  0.57202984  0.42399335  0.58159233     0.37100
C986        C  0.59168053  0.36477465  0.67648613     0.37100
N987        N  0.56804478  0.43683653  0.56261578    -0.37700
N988        N  0.59577641  0.35389946  0.69592564    -0.37700
N989        N  0.67030215  0.39546029  0.58264312    -0.37100
N990        N  0.49507885  0.39919628  0.67641211    -0.37100
C991        C  0.35624841  0.35585113  0.61338650    -0.03800
C992        C  0.34504948  0.32721350  0.59652051    -0.00900
C993        C  0.32575380  0.29355736  0.60429913     0.04100
C994        C  0.31756885  0.28840421  0.62886934    -0.03800
C995        C  0.32582926  0.31835514  0.64531941    -0.00900
C996        C  0.34440805  0.35217962  0.63757657     0.04100
C997        C  0.35519540  0.33098493  0.57140159     0.38700
C998        C  0.31616059  0.31393140  0.67050245     0.38700
C999        C  0.35129143  0.38314592  0.65471640     0.37100
C1000       C  0.31724062  0.26288562  0.58730565     0.37100
N1001       N  0.35677183  0.40777908  0.66838877    -0.37700
N1002       N  0.31065292  0.23835176  0.57376069    -0.37700
N1003       N  0.30883913  0.31023661  0.69060820    -0.37100
N1004       N  0.36317670  0.33392341  0.55133824    -0.37100
C1005       C  0.17310170  0.78249599  0.63518680    -0.03800
C1006       C  0.16500130  0.81395412  0.65059764    -0.00900
C1007       C  0.14667033  0.84732742  0.64169399     0.04100
C1008       C  0.13486064  0.84927379  0.61736096    -0.03800
C1009       C  0.14424579  0.81823656  0.60175450    -0.00900
C1010       C  0.16324970  0.78507431  0.61064743     0.04100
C1011       C  0.17540614  0.81210453  0.67580819     0.38700
C1012       C  0.13298984  0.81931881  0.57671154     0.38700
C1013       C  0.17016415  0.75243284  0.59481155     0.37100
C1014       C  0.14090222  0.88003362  0.65768983     0.37100
N1015       N  0.17546167  0.72627419  0.58225620    -0.37700
N1016       N  0.13642630  0.90611782  0.67043178    -0.37700
N1017       N  0.12417222  0.81997388  0.55669652    -0.37100
N1018       N  0.18329486  0.81060610  0.69595383    -0.37100
C1019       C  0.04830274  0.56819340  0.63383746    -0.03800
C1020       C  0.08128581  0.56655056  0.61905639    -0.00900
C1021       C  0.11631361  0.58283726  0.62684623     0.04100
C1022       C  0.11871241  0.60126522  0.64949709    -0.03800
C1023       C  0.08671110  0.59957992  0.66520860    -0.00900
C1024       C  0.05152981  0.58323720  0.65733690     0.04100
C1025       C  0.07918652  0.54790859  0.59570079     0.38700
C1026       C  0.08916448  0.61639565  0.68903106     0.38700
C1027       C  0.01810282  0.58420408  0.67290149     0.37100
C1028       C  0.15000889  0.58015101  0.61151736     0.37100
N1029       N  0.99149644  0.58512382  0.68538276    -0.37700
N1030       N  0.17681895  0.57784195  0.59926910    -0.37700
N1031       N  0.09130178  0.62968465  0.70806112    -0.37100
N1032       N  0.07732562  0.53300679  0.57712274    -0.37100
C1033       C  0.36637798  0.54690191  0.62256575    -0.03800
C1034       C  0.34659851  0.57110613  0.60629335    -0.00900
C1035       C  0.31968414  0.59851374  0.61470727     0.04100
C1036       C  0.31236992  0.60230959  0.63959206    -0.03800
C1037       C  0.33371388  0.57943613  0.65592605    -0.00900
C1038       C  0.36017681  0.55159414  0.64746109     0.04100
C1039       C  0.35366838  0.56773893  0.58069728     0.38700
C1040       C  0.32890964  0.58466781  0.68159819     0.38700
C1041       C  0.37920679  0.52628353  0.66446614     0.37100
C1042       C  0.29847410  0.62147032  0.59742756     0.37100
N1043       N  0.39415179  0.50602357  0.67806722    -0.37700
N1044       N  0.28180064  0.63960904  0.58345435    -0.37700
N1045       N  0.32517046  0.58886730  0.70206670    -0.37100
N1046       N  0.35914758  0.56487137  0.56029799    -0.37100
C1047       C  0.88980118  0.36645320  0.37186789    -0.03800
C1048       C  0.89081344  0.40715922  0.37249030    -0.00900
C1049       C  0.92471753  0.42659004  0.37974641     0.04100
C1050       C  0.95789948  0.40529007  0.38634805    -0.03800
C1051       C  0.95696963  0.36434602  0.38482727    -0.00900
C1052       C  0.92302133  0.34514366  0.37776325     0.04100
C1053       C  0.85641024  0.42895616  0.36661345     0.38700
C1054       C  0.99116991  0.34160083  0.38985997     0.38700
C1055       C  0.92243852  0.30323786  0.37603467     0.37100
C1056       C  0.92470974  0.46840312  0.38132784     0.37100
N1057       N  0.92180364  0.26988510  0.37455200    -0.37700
N1058       N  0.92463305  0.50178032  0.38256764    -0.37700
N1059       N  0.01828236  0.32323689  0.39381944    -0.37100
N1060       N  0.82887062  0.44621563  0.36196353    -0.37100
C1061       C  0.82128564  0.18987921  0.38533593    -0.03800
C1062       C  0.81913432  0.15668671  0.37061874    -0.00900
C1063       C  0.83863368  0.12264072  0.37713001     0.04100
C1064       C  0.86034731  0.12127460  0.39858838    -0.03800
C1065       C  0.85966247  0.15340213  0.41438683    -0.00900
C1066       C  0.84016172  0.18764639  0.40775175     0.04100
C1067       C  0.79667593  0.15754286  0.34864464     0.38700
C1068       C  0.88103152  0.15229985  0.43674655     0.38700
C1069       C  0.84158371  0.22124862  0.42333756     0.37100
C1070       C  0.83633760  0.08896854  0.36159049     0.37100
N1071       N  0.84272302  0.24801331  0.43582319    -0.37700
N1072       N  0.83471918  0.06208916  0.34922077    -0.37700
N1073       N  0.89809825  0.15140293  0.45456981    -0.37100
N1074       N  0.77865962  0.15817968  0.33118638    -0.37100
C1075       C  0.63009675  0.62197563  0.39214944    -0.03800
C1076       C  0.63117639  0.65505090  0.40720838    -0.00900
C1077       C  0.64974452  0.68914769  0.39945754     0.04100
C1078       C  0.66615893  0.69098526  0.37631790    -0.03800
C1079       C  0.66581618  0.65782831  0.36150627    -0.00900
C1080       C  0.64918673  0.62317605  0.36971188     0.04100
C1081       C  0.61136633  0.65509102  0.43010730     0.38700
C1082       C  0.68203930  0.65931921  0.33754669     0.38700
C1083       C  0.65250446  0.58852769  0.35508749     0.37100
C1084       C  0.64956195  0.72325013  0.41468539     0.37100
N1085       N  0.65538691  0.56084747  0.34352215    -0.37700
N1086       N  0.64939428  0.75050171  0.42677073    -0.37700
N1087       N  0.69432510  0.66025073  0.31827455    -0.37100
N1088       N  0.59549170  0.65532575  0.44835292    -0.37100
C1089       C  0.39211922  0.61601494  0.35392891    -0.03800
C1090       C  0.39602817  0.57583853  0.35004056    -0.00900
C1091       C  0.42894638  0.55601589  0.35858397     0.04100
C1092       C  0.45791639  0.57623879  0.37139507    -0.03800
C1093       C  0.45509871  0.61696052  0.37361746    -0.00900
C1094       C  0.42246876  0.63659965  0.36496244     0.04100
C1095       C  0.36502773  0.55440423  0.33870295     0.38700
C1096       C  0.48575548  0.63914870  0.38490148     0.38700
C1097       C  0.42028298  0.67827138  0.36763949     0.37100
C1098       C  0.43174933  0.51457285  0.35519207     0.37100
N1099       N  0.41910001  0.71143898  0.37010475    -0.37700
N1100       N  0.43379640  0.48150592  0.35234438    -0.37700
N1101       N  0.50992935  0.65692501  0.39403725    -0.37100
N1102       N  0.34018405  0.53734651  0.32974985    -0.37100
C1103       C  0.50403584  0.49660693  0.47793879    -0.03800
C1104       C  0.50070121  0.45785393  0.48559343    -0.00900
C1105       C  0.48539663  0.44933473  0.50839758     0.04100
C1106       C  0.47244712  0.47941667  0.52360406    -0.03800
C1107       C  0.47463095  0.51808338  0.51567638    -0.00900
C1108       C  0.49062670  0.52667850  0.49304029     0.04100
C1109       C  0.51463216  0.42662630  0.47048635     0.38700
C1110       C  0.45955043  0.54906673  0.53056313     0.38700
C1111       C  0.49232008  0.56652792  0.48511485     0.37100
C1112       C  0.48509623  0.40963421  0.51670635     0.37100
N1113       N  0.49365567  0.59835263  0.47888376    -0.37700
N1114       N  0.48503903  0.37804965  0.52343687    -0.37700
N1115       N  0.44747565  0.57371670  0.54244949    -0.37100
N1116       N  0.52567689  0.40169847  0.45843895    -0.37100
C1117       C  0.62969496  0.42655402  0.38763906    -0.03800
C1118       C  0.64120367  0.42323244  0.36340852    -0.00900
C1119       C  0.67102213  0.39751498  0.35681576     0.04100
C1120       C  0.68909465  0.37406162  0.37430723    -0.03800
C1121       C  0.67593617  0.37583014  0.39831356    -0.00900
C1122       C  0.64639455  0.40186825  0.40490018     0.04100
C1123       C  0.62314520  0.44705833  0.34522662     0.38700
C1124       C  0.69388036  0.35214357  0.41660066     0.38700
C1125       C  0.63247994  0.40250722  0.42943033     0.37100
C1126       C  0.68279955  0.39520296  0.33187635     0.37100
N1127       N  0.62124456  0.40271602  0.44896519    -0.37700
N1128       N  0.69217042  0.39359100  0.31198143    -0.37700
N1129       N  0.70824586  0.33323171  0.43115621    -0.37100
N1130       N  0.60854541  0.46582306  0.33068788    -0.37100
C1131       C  0.33778192  0.70492145  0.87335450    -0.03800
C1132       C  0.34083901  0.69536592  0.89785734    -0.00900
C1133       C  0.35814876  0.66016597  0.90489048     0.04100
C1134       C  0.37431052  0.63480419  0.88746089    -0.03800
C1135       C  0.36978583  0.64409993  0.86278930    -0.00900
C1136       C  0.35089857  0.67835942  0.85588791     0.04100
C1137       C  0.32834031  0.72280436  0.91599634     0.38700
C1138       C  0.38472473  0.61893906  0.84407661     0.38700
C1139       C  0.34454979  0.68595576  0.83055575     0.37100
C1140       C  0.36020952  0.65117914  0.93024828     0.37100
N1141       N  0.33949533  0.69182804  0.81037601    -0.37700
N1142       N  0.36152325  0.64410619  0.95050347    -0.37700
N1143       N  0.39691170  0.59938905  0.82900119    -0.37100
N1144       N  0.31867512  0.74480041  0.93046920    -0.37100
C1145       C  0.39375947  0.88928114  0.86573552    -0.03800
C1146       C  0.42396421  0.89707063  0.84937886    -0.00900
C1147       C  0.45801676  0.91542420  0.85738823     0.04100
C1148       C  0.46239159  0.92536624  0.88182220    -0.03800
C1149       C  0.43129341  0.91996058  0.89776602    -0.00900
C1150       C  0.39689797  0.90276555  0.88965764     0.04100
C1151       C  0.42104418  0.88471177  0.82456102     0.38700
C1152       C  0.43447895  0.93239204  0.92259545     0.38700
C1153       C  0.36433535  0.89990332  0.90589858     0.37100
C1154       C  0.48932678  0.92219546  0.84070366     0.37100
N1155       N  0.33822648  0.89781576  0.91872227    -0.37700
N1156       N  0.51425731  0.92771532  0.82738439    -0.37700
N1157       N  0.43690017  0.94214703  0.94241387    -0.37100
N1158       N  0.41881408  0.87495875  0.80473256    -0.37100
C1159       C  0.25183999  0.72458644  0.73426796    -0.03800
C1160       C  0.26729707  0.76251321  0.73427338    -0.00900
C1161       C  0.27485660  0.78188380  0.75608362     0.04100
C1162       C  0.26718535  0.76371479  0.77822066    -0.03800
C1163       C  0.25233377  0.72554411  0.77825357    -0.00900
C1164       C  0.24493350  0.70608822  0.75642721     0.04100
C1165       C  0.27450997  0.78246110  0.71187228     0.38700
C1166       C  0.24586037  0.70545489  0.80071516     0.38700
C1167       C  0.23173783  0.66628557  0.75694044     0.37100
C1168       C  0.28938815  0.82121745  0.75557916     0.37100
N1169       N  0.22143318  0.63451890  0.75748353    -0.37700
N1170       N  0.30101411  0.85252669  0.75519422    -0.37700
N1171       N  0.24072831  0.68938019  0.81860730    -0.37100
N1172       N  0.28045220  0.79849554  0.69406811    -0.37100
C1173       C  0.18237982  0.19899705  0.87764455    -0.03800
C1174       C  0.16312026  0.19930995  0.89997793    -0.00900
C1175       C  0.14257676  0.16632363  0.90773020     0.04100
C1176       C  0.14105221  0.13275425  0.89314529    -0.03800
C1177       C  0.16218694  0.13188732  0.87144625    -0.00900
C1178       C  0.18247455  0.16484055  0.86370726     0.04100
C1179       C  0.16182622  0.23453376  0.91414268     0.38700
C1180       C  0.16329612  0.09695843  0.85695154     0.38700
C1181       C  0.20321185  0.16360480  0.84112741     0.37100
C1182       C  0.12102107  0.16804158  0.92999222     0.37100
N1183       N  0.21950414  0.16251912  0.82304526    -0.37700
N1184       N  0.10379170  0.16951282  0.94773455    -0.37700
N1185       N  0.16409187  0.06913031  0.84539287    -0.37100
N1186       N  0.16049192  0.26272182  0.92533683    -0.37100
C1187       C  0.95729778  0.07334606  0.87753010    -0.03800
C1188       C  0.92396505  0.07633080  0.89190564    -0.00900
C1189       C  0.89038935  0.09398868  0.88284945     0.04100
C1190       C  0.88996073  0.10964485  0.85939266    -0.03800
C1191       C  0.92268753  0.10462293  0.84453559    -0.00900
C1192       C  0.95634861  0.08698941  0.85369486     0.04100
C1193       C  0.92432829  0.06169750  0.91628427     0.38700
C1194       C  0.92269827  0.11927372  0.82018906     0.38700
C1195       C  0.99111521  0.08605939  0.83929055     0.37100
C1196       C  0.85613399  0.09556556  0.89775378     0.37100
N1197       N  0.01904347  0.08578297  0.82797068    -0.37700
N1198       N  0.82884178  0.09678269  0.90964658    -0.37700
N1199       N  0.92264391  0.13078604  0.80073103    -0.37100
N1200       N  0.92464197  0.05027929  0.93576224    -0.37100
C1201       C  0.14087392  0.93893419  0.88780305    -0.03800
C1202       C  0.16313546  0.91769650  0.90452926    -0.00900
C1203       C  0.19249194  0.89237195  0.89659365     0.04100
C1204       C  0.19959050  0.88725516  0.87180610    -0.03800
C1205       C  0.17617735  0.90700818  0.85506457    -0.00900
C1206       C  0.14696132  0.93246645  0.86297043     0.04100
C1207       C  0.15551624  0.92104542  0.93003621     0.38700
C1208       C  0.18182983  0.90110861  0.82951108     0.38700
C1209       C  0.12402529  0.95277452  0.84526633     0.37100
C1210       C  0.21667416  0.87310052  0.91411914     0.37100
N1211       N  0.10563702  0.96876202  0.83110930    -0.37700
N1212       N  0.23610786  0.85780849  0.92803363    -0.37700
N1213       N  0.18626575  0.89661886  0.80912032    -0.37100
N1214       N  0.14961370  0.92327925  0.95041921    -0.37100
C1215       C  0.87371825  0.86590388  0.11630107    -0.03800
C1216       C  0.85710441  0.86431867  0.13949972    -0.00900
C1217       C  0.83538404  0.83189159  0.14657550     0.04100
C1218       C  0.82995132  0.80050365  0.13067501    -0.03800
C1219       C  0.84434068  0.80298859  0.10703345    -0.00900
C1220       C  0.86613252  0.83548790  0.09986134     0.04100
C1221       C  0.86156514  0.89633943  0.15617479     0.38700
C1222       C  0.83849311  0.77121670  0.09037889     0.38700
C1223       C  0.88209831  0.83651483  0.07583700     0.37100
C1224       C  0.81804353  0.83119953  0.17026317     0.37100
N1225       N  0.89473324  0.83729513  0.05664347    -0.37700
N1226       N  0.80426405  0.83091067  0.18915005    -0.37700
N1227       N  0.83379387  0.74590038  0.07708334    -0.37100
N1228       N  0.86506511  0.92180168  0.16950979    -0.37100
C1229       C  0.05384516  0.93600511  0.13189291    -0.03800
C1230       C  0.05361954  0.91296603  0.15273015    -0.00900
C1231       C  0.08747461  0.89357243  0.15996006     0.04100
C1232       C  0.12188998  0.89805523  0.14667314    -0.03800
C1233       C  0.12285619  0.92436949  0.12736986    -0.00900
C1234       C  0.08879952  0.94262405  0.11968642     0.04100
C1235       C  0.01782376  0.90676779  0.16557977     0.38700
C1236       C  0.15902481  0.93268752  0.11539912     0.38700
C1237       C  0.08954243  0.96756463  0.09882697     0.37100
C1238       C  0.08592277  0.86683415  0.17990159     0.37100
N1239       N  0.09008873  0.98728583  0.08211697    -0.37700
N1240       N  0.08442465  0.84541367  0.19576054    -0.37700
N1241       N  0.18801615  0.93936086  0.10605959    -0.37100
N1242       N  0.98913101  0.90196695  0.17569104    -0.37100
C1243       C  0.98788090  0.99256815  0.02668616    -0.03800
C1244       C  0.00517423  0.96272432  0.01296180    -0.00900
C1245       C  0.02122634  0.97078852  0.99027388     0.04100
C1246       C  0.02003536  0.00866913  0.98096057    -0.03800
C1247       C  0.00258720  0.03845635  0.99456688    -0.00900
C1248       C  0.98671435  0.03048551  0.01731441     0.04100
C1249       C  0.00781305  0.92380396  0.02241386     0.38700
C1250       C  0.99951451  0.07715725  0.98481136     0.38700
C1251       C  0.96789233  0.06125750  0.03063406     0.37100
C1252       C  0.04034813  0.94021728  0.97692903     0.37100
N1253       N  0.95287034  0.08577832  0.04124032    -0.37700
N1254       N  0.05565852  0.91590768  0.96629693    -0.37700
N1255       N  0.99696246  0.10801172  0.97703860    -0.37100
N1256       N  0.00994633  0.89269241  0.02983568    -0.37100
C1257       C  0.64533165  0.36341729  0.11328525    -0.03800
C1258       C  0.64472710  0.32869992  0.09979288    -0.00900
C1259       C  0.66419840  0.29561534  0.10825527     0.04100
C1260       C  0.68359594  0.29671986  0.13051881    -0.03800
C1261       C  0.68555111  0.33171046  0.14351856    -0.00900
C1262       C  0.66710026  0.36508226  0.13475425     0.04100
C1263       C  0.62154813  0.32585811  0.07819531     0.38700
C1264       C  0.70608606  0.33317620  0.16620457     0.38700
C1265       C  0.67064802  0.40114011  0.14794204     0.37100
C1266       C  0.66158313  0.25959902  0.09493690     0.37100
N1267       N  0.67362783  0.42984628  0.15848572    -0.37700
N1268       N  0.65931378  0.23090611  0.08431182    -0.37700
N1269       N  0.72228031  0.33410874  0.18434731    -0.37100
N1270       N  0.60284752  0.32339338  0.06106920    -0.37100
C1271       C  0.61256458  0.12476180  0.14353566    -0.03800
C1272       C  0.58012303  0.12128757  0.15881915    -0.00900
C1273       C  0.54556762  0.10475285  0.15009713     0.04100
C1274       C  0.54333669  0.09134585  0.12619423    -0.03800
C1275       C  0.57608740  0.09316352  0.11132514    -0.00900
C1276       C  0.61049748  0.10961281  0.11991091     0.04100
C1277       C  0.58140473  0.13613210  0.18316754     0.38700
C1278       C  0.57453783  0.07752028  0.08712144     0.38700
C1279       C  0.64397203  0.11016278  0.10431952     0.37100
C1280       C  0.51164986  0.10352750  0.16528529     0.37100
N1281       N  0.67054092  0.11058639  0.09180353    -0.37700
N1282       N  0.48448657  0.10261954  0.17729210    -0.37700
N1283       N  0.57311007  0.06504394  0.06785855    -0.37100
N1284       N  0.58211411  0.14777303  0.20264823    -0.37100
C1285       C  0.74497282  0.22935186  0.23550913    -0.03800
C1286       C  0.78194324  0.22415500  0.24560802    -0.00900
C1287       C  0.79020700  0.23841366  0.26881556     0.04100
C1288       C  0.76143259  0.25771036  0.28226498    -0.03800
C1289       C  0.72413602  0.26191384  0.27239305    -0.00900
C1290       C  0.71619852  0.24854458  0.24897221     0.04100
C1291       C  0.81101809  0.20244125  0.23260098     0.38700
C1292       C  0.69376005  0.28028533  0.28621262     0.38700
C1293       C  0.67869043  0.25599862  0.23844603     0.37100
C1294       C  0.82771512  0.23102424  0.27934830     0.37100
N1295       N  0.64881133  0.26223873  0.23010622    -0.37700
N1296       N  0.85757455  0.22479471  0.28772084    -0.37700
N1297       N  0.66943650  0.29448912  0.29735613    -0.37100
N1298       N  0.83405501  0.18490109  0.22225199    -0.37100
C1299       C  0.86351092  0.05555928  0.12111773    -0.03800
C1300       C  0.87162845  0.09547440  0.12160680    -0.00900
C1301       C  0.84415830  0.12190342  0.13068364     0.04100
C1302       C  0.80779815  0.10873066  0.13886033    -0.03800
C1303       C  0.79960147  0.06860578  0.13794945    -0.00900
C1304       C  0.82728498  0.04228336  0.12916391     0.04100
C1305       C  0.90757176  0.10957182  0.11167529     0.38700
C1306       C  0.76231417  0.05404229  0.14547275     0.38700
C1307       C  0.81851221  0.00124201  0.12870368     0.37100
C1308       C  0.85409498  0.16251850  0.13228134     0.37100
N1309       N  0.81150114  0.96856481  0.12820123    -0.37700
N1310       N  0.86223438  0.19487037  0.13363276    -0.37700
N1311       N  0.73269867  0.04219097  0.15148701    -0.37100
N1312       N  0.93604126  0.12082441  0.10348618    -0.37100
loop_ 
_geom_bond_atom_site_label_1 
_geom_bond_atom_site_label_2 
_geom_bond_distance 
_geom_bond_site_symmetry_2 
_ccdc_geom_bond_type 
O1            C4   1.266       .  A
O1           Cd6   2.456       .  S
C2           O11   1.262       .  A
C2            O7   1.267       .  A
C2         C1271   1.492       .  S
O3            C9   1.268       .  A
O3           Cd6   2.486       .  S
C4           O12   1.267       .  A
C4         C1285   1.488       .  S
C5           O10   1.267       .  A
C5            O8   1.265       .  A
C5         C1302   1.497       .  S
Cd6          O13   2.428       .  S
Cd6          O12   2.468       .  S
Cd6          O11   2.423       .  S
Cd6           O7   2.506       .  S
Cd6          O10   2.486       .  S
Cd6           O8   2.465       .  S
C9           O13   1.263       .  A
C9         C1260   1.482       .  S
O14          C17   1.267       .  A
O14         Cd19   2.459       .  S
C15          O24   1.264       .  A
C15          O20   1.266       .  A
C15        C1215   1.496       .  S
O16          C22   1.268   1_655  A
O16         Cd19   2.491       .  S
C17          O25   1.267   1_565  A
C17        C1243   1.491       .  S
C18          O23   1.267       .  A
C18          O21   1.263       .  A
C18        C1299   1.487       .  S
Cd19         O26   2.427   1_655  S
Cd19         O25   2.458   1_565  S
Cd19         O24   2.451       .  S
Cd19         O20   2.485       .  S
Cd19         O23   2.491   1_565  S
Cd19         O21   2.443   1_565  S
C22          O26   1.263       .  A
C22        C1229   1.480       .  S
O27          C30   1.266       .  A
O27         Cd32   2.496       .  S
C28          O37   1.267   1_545  A
C28          O33   1.266       .  A
C28        C1246   1.487       .  S
O29          C35   1.268   1_455  A
O29         Cd32   2.502       .  S
C30          O38   1.264       .  A
C30        C1176   1.493       .  S
C31          O36   1.267       .  A
C31          O34   1.265       .  A
C31        C1201   1.500       .  S
Cd32         O39   2.444       .  S
Cd32         O38   2.445       .  S
Cd32         O37   2.457   1_545  S
Cd32         O33   2.455       .  S
Cd32         O36   2.484   1_545  S
Cd32         O34   2.476   1_545  S
C35          O39   1.263   1_655  A
C35        C1187   1.487       .  S
O40          C43   1.268       .  A
O40         Cd45   2.485       .  S
C41          O50   1.264       .  A
C41          O46   1.268       .  A
C41        C1162   1.491       .  S
O42          C48   1.270       .  A
O42         Cd45   2.491       .  S
C43          O51   1.265       .  A
C43        C1145   1.491       .  S
C44          O49   1.268       .  A
C44          O47   1.265       .  A
C44        C1204   1.495       .  S
Cd45         O52   2.414       .  S
Cd45         O51   2.421       .  S
Cd45         O50   2.443       .  S
Cd45         O46   2.462       .  S
Cd45         O49   2.478       .  S
Cd45         O47   2.457       .  S
C48          O52   1.264       .  A
C48        C1131   1.489       .  S
O53          C56   1.267       .  A
O53         Cd58   2.467       .  S
C54          O63   1.264       .  A
C54          O59   1.268       .  A
C54        C1075   1.494       .  S
O55          C61   1.268       .  A
O55         Cd58   2.489       .  S
C56          O64   1.267       .  A
C56        C1103   1.489       .  S
C57          O62   1.270       .  A
C57          O60   1.263       .  A
C57        C1092   1.494       .  S
Cd58         O65   2.461       .  S
Cd58         O64   2.461       .  S
Cd58         O63   2.428       .  S
Cd58         O59   2.496       .  S
Cd58         O62   2.513       .  S
Cd58         O60   2.408       .  S
C61          O65   1.265       .  A
C61        C1117   1.491       .  S
O66          C69   1.266       .  A
O66         Cd71   2.479       .  S
C67          O76   1.266       .  A
C67          O72   1.267       .  A
C67        C1288   1.489       .  S
O68          C74   1.269       .  A
O68         Cd71   2.507       .  S
C69          O77   1.264       .  A
C69        C1047   1.478       .  S
C70          O75   1.268       .  A
C70          O73   1.264       .  A
C70        C1120   1.495       .  S
Cd71         O78   2.422       .  S
Cd71         O77   2.440       .  S
Cd71         O76   2.453       .  S
Cd71         O72   2.471       .  S
Cd71         O75   2.483       .  S
Cd71         O73   2.463       .  S
C74          O78   1.263       .  A
C74        C1061   1.485       .  S
O79          C82   1.268       .  A
O79         Cd84   2.470       .  S
C80          O89   1.264       .  A
C80          O85   1.268       .  A
C80        C1022   1.491       .  S
O81          C87   1.269       .  A
O81         Cd84   2.490       .  S
C82          O90   1.265       .  A
C82        C1159   1.493       .  S
C83          O88   1.268       .  A
C83          O86   1.265       .  A
C83        C1036   1.494       .  S
Cd84         O91   2.437       .  S
Cd84         O90   2.449       .  S
Cd84         O89   2.432       .  S
Cd84         O85   2.488       .  S
Cd84         O88   2.477       .  S
Cd84         O86   2.444       .  S
C87          O91   1.264       .  A
C87        C1005   1.489       .  S
O92          C95   1.266       .  A
O92         Cd97   2.452       .  S
C93         O102   1.264       .  A
C93          O98   1.265       .  A
C93         C991   1.490       .  S
O94         C100   1.268       .  A
O94         Cd97   2.488       .  S
C95         O103   1.266       .  A
C95        C1106   1.486       .  S
C96         O101   1.267       .  A
C96          O99   1.263       .  A
C96        C1033   1.489       .  S
Cd97        O104   2.438       .  S
Cd97        O103   2.455       .  S
Cd97        O102   2.423       .  S
Cd97         O98   2.483       .  S
Cd97        O101   2.485       .  S
Cd97         O99   2.429       .  S
C100        O104   1.265       .  A
C100        C977   1.486       .  S
O105        C108   1.266       .  A
O105       Cd110   2.483       .  S
C106        O115   1.265       .  A
C106        O111   1.267       .  A
C106        C949   1.492       .  S
O107        C113   1.269   1_655  A
O107       Cd110   2.503       .  S
C108        O116   1.265       .  A
C108        C935   1.491       .  S
C109        O114   1.267       .  A
C109        O112   1.264       .  A
C109        C963   1.493       .  S
Cd110       O117   2.422       .  S
Cd110       O116   2.440       .  S
Cd110       O115   2.448       .  S
Cd110       O111   2.457       .  S
Cd110       O114   2.471       .  S
Cd110       O112   2.456       .  S
C113        O117   1.264   1_455  A
C113       C1019   1.486       .  S
O118        C121   1.266       .  A
O118       Cd123   2.484       .  S
C119        O128   1.266       .  A
C119        O124   1.267       .  A
C119        C924   1.495       .  S
O120        C126   1.269       .  A
O120       Cd123   2.490       .  S
C121        O129   1.265       .  A
C121        C980   1.497       .  S
C122        O127   1.268       .  A
C122        O125   1.264       .  A
C122        C966   1.485       .  S
Cd123       O130   2.417       .  S
Cd123       O129   2.458       .  S
Cd123       O128   2.462       .  S
Cd123       O124   2.446       .  S
Cd123       O127   2.477       .  S
Cd123       O125   2.430       .  S
C126        O130   1.263       .  A
C126        C910   1.483       .  S
O131        C134   1.269       .  A
O131       Cd136   2.514       .  S
C132        O141   1.265       .  A
C132        O137   1.268       .  A
C132        C879   1.500       .  S
O133        C139   1.266       .  A
O133       Cd136   2.478       .  S
C134        O142   1.263       .  A
C134        C868   1.495       .  S
C135        O140   1.267       .  A
C135        O138   1.267   1_565  A
C135        C893   1.488       .  S
Cd136       O143   2.423       .  S
Cd136       O142   2.432       .  S
Cd136       O141   2.461       .  S
Cd136       O137   2.480       .  S
Cd136       O140   2.464   1_545  S
Cd136       O138   2.448       .  S
C139        O143   1.264       .  A
C139       C1274   1.480       .  S
O144        C147   1.266       .  A
O144       Cd149   2.488       .  S
C145        O154   1.266       .  A
C145        O150   1.266       .  A
C145        C851   1.490       .  S
O146        C152   1.269       .  A
O146       Cd149   2.516       .  S
C147        O155   1.265       .  A
C147       C1232   1.485       .  S
C148        O153   1.268       .  A
C148        O151   1.264       .  A
C148        C896   1.498       .  S
Cd149       O156   2.419       .  S
Cd149       O155   2.432       .  S
Cd149       O154   2.459       .  S
Cd149       O150   2.461       .  S
Cd149       O153   2.499       .  S
Cd149       O151   2.455       .  S
C152        O156   1.263       .  A
C152        C837   1.495       .  S
O157        C160   1.268       .  A
O157       Cd162   2.462       .  S
C158        O167   1.264       .  A
C158        O163   1.268       .  A
C158       C1089   1.487       .  S
O159        C165   1.271       .  A
O159       Cd162   2.498       .  S
C160        O168   1.267       .  A
C160        C854   1.488       .  S
C161        O166   1.268       .  A
C161        O164   1.264       .  A
C161        C823   1.495       .  S
Cd162       O169   2.412       .  S
Cd162       O168   2.450       .  S
Cd162       O167   2.433       .  S
Cd162       O163   2.495       .  S
Cd162       O166   2.509       .  S
Cd162       O164   2.455       .  S
C165        O169   1.262       .  A
C165        C809   1.494       .  S
O170        C173   1.268       .  A
O170       Cd175   2.470       .  S
C171        O180   1.265       .  A
C171        O176   1.269       .  A
C171        C798   1.497       .  S
O172        C178   1.271   1_455  A
O172       Cd175   2.498       .  S
C173        O181   1.266       .  A
C173        C952   1.493       .  S
C174        O179   1.270       .  A
C174        O177   1.265       .  A
C174        C826   1.494       .  S
Cd175       O182   2.421       .  S
Cd175       O181   2.462       .  S
Cd175       O180   2.435       .  S
Cd175       O176   2.479       .  S
Cd175       O179   2.505       .  S
Cd175       O177   2.436       .  S
C178        O182   1.264   1_655  A
C178       C1050   1.493       .  S
O183        C186   1.267       .  A
O183       Cd188   2.458       .  S
C184        O193   1.264       .  A
C184        O189   1.268       .  A
C184       C1190   1.494       .  S
O185        C191   1.269       .  A
O185       Cd188   2.498       .  S
C186        O194   1.267       .  A
C186        C921   1.496       .  S
C187        O192   1.269       .  A
C187        O190   1.265       .  A
C187        C781   1.492       .  S
Cd188       O195   2.434       .  S
Cd188       O194   2.455       .  S
Cd188       O193   2.434       .  S
Cd188       O189   2.494       .  S
Cd188       O192   2.492       .  S
Cd188       O190   2.447       .  S
C191        O195   1.263       .  A
C191        C770   1.489       .  S
O196        C199   1.267       .  A
O196       Cd201   2.479       .  S
C197        O206   1.265       .  A
C197        O202   1.268       .  A
C197        C753   1.494       .  S
O198        C204   1.268       .  A
O198       Cd201   2.484       .  S
C199        O207   1.265   1_565  A
C199        C882   1.498       .  S
C200        O205   1.268       .  A
C200        O203   1.265       .  A
C200        C784   1.491       .  S
Cd201       O208   2.428       .  S
Cd201       O207   2.443   1_565  S
Cd201       O206   2.428       .  S
Cd201       O202   2.495       .  S
Cd201       O205   2.496   1_565  S
Cd201       O203   2.444   1_565  S
C204        O208   1.264       .  A
C204       C1148   1.483       .  S
O209        C212   1.268       .  A
O209       Cd214   2.471       .  S
C210        O219   1.264       .  A
C210        O215   1.267       .  A
C210       C1134   1.505       .  S
O211        C217   1.270       .  A
O211       Cd214   2.493       .  S
C212        O220   1.265       .  A
C212        C725   1.490       .  S
C213        O218   1.268       .  A
C213        O216   1.265       .  A
C213        C739   1.498       .  S
Cd214       O221   2.433       .  S
Cd214       O220   2.444       .  S
Cd214       O219   2.439       .  S
Cd214       O215   2.492       .  S
Cd214       O218   2.492       .  S
Cd214       O216   2.454       .  S
C217        O221   1.264       .  A
C217        C711   1.486       .  S
O222        C225   1.267       .  A
O222       Cd227   2.465       .  S
C223        O232   1.263       .  A
C223        O228   1.267       .  A
C223        C683   1.487       .  S
O224        C230   1.269       .  A
O224       Cd227   2.507       .  S
C225        O233   1.266       .  A
C225        C700   1.499       .  S
C226        O231   1.268       .  A
C226        O229   1.265       .  A
C226        C742   1.493       .  S
Cd227       O234   2.436       .  S
Cd227       O233   2.458       .  S
Cd227       O232   2.426       .  S
Cd227       O228   2.508       .  S
Cd227       O231   2.491       .  S
Cd227       O229   2.459       .  S
C230        O234   1.263       .  A
C230       C1173   1.489       .  S
O235        C238   1.267       .  A
O235       Cd240   2.490       .  S
C236        O245   1.266       .  A
C236        O241   1.268       .  A
C236        C728   1.490       .  S
O237        C243   1.269       .  A
O237       Cd240   2.502       .  S
C238        O246   1.264       .  A
C238       C1257   1.490       .  S
C239        O244   1.268       .  A
C239        O242   1.264       .  A
C239        C672   1.490       .  S
Cd240       O247   2.437       .  S
Cd240       O246   2.443       .  S
Cd240       O245   2.443       .  S
Cd240       O241   2.471       .  S
Cd240       O244   2.492       .  S
Cd240       O242   2.440       .  S
C243        O247   1.264       .  A
C243        C655   1.498       .  S
O248        C251   1.267       .  A
O248       Cd253   2.483       .  S
C249        O258   1.267       .  A
C249        O254   1.267       .  A
C249        C641   1.493       .  S
O250        C256   1.270       .  A
O250       Cd253   2.498       .  S
C251        O259   1.264       .  A
C251        C627   1.488       .  S
C252        O257   1.269       .  A
C252        O255   1.264       .  A
C252        C669   1.487       .  S
Cd253       O260   2.423       .  S
Cd253       O259   2.422       .  S
Cd253       O258   2.452       .  S
Cd253       O254   2.451       .  S
Cd253       O257   2.498       .  S
Cd253       O255   2.427       .  S
C256        O260   1.263       .  A
C256       C1218   1.488       .  S
O261        C264   1.268       .  A
O261       Cd266   2.464       .  S
C262        O271   1.263       .  A
C262        O267   1.267       .  A
C262       C1008   1.499       .  S
O263        C269   1.267       .  A
O263       Cd266   2.480   1_545  S
C264        O272   1.266       .  A
C264        C599   1.488       .  S
C265        O270   1.268   1_655  A
C265        O268   1.265   1_655  A
C265        C585   1.486       .  S
Cd266       O273   2.456       .  S
Cd266       O272   2.450       .  S
Cd266       O271   2.442       .  S
Cd266       O267   2.507       .  S
Cd266       O270   2.485       .  S
Cd266       O268   2.448       .  S
C269        O273   1.264   1_545  A
C269        C616   1.490       .  S
O274        C277   1.268       .  A
O274       Cd279   2.487       .  S
C275        O284   1.265       .  A
C275        O280   1.266       .  A
C275        C697   1.495       .  S
O276        C282   1.269       .  A
O276       Cd279   2.498       .  S
C277        O285   1.264       .  A
C277        C574   1.484       .  S
C278        O283   1.268       .  A
C278        O281   1.266       .  A
C278        C613   1.492       .  S
Cd279       O286   2.409       .  S
Cd279       O285   2.431       .  S
Cd279       O284   2.457       .  S
Cd279       O280   2.463       .  S
Cd279       O283   2.466       .  S
Cd279       O281   2.458       .  S
C282        O286   1.262       .  A
C282        C994   1.481       .  S
O287        C290   1.267   1_545  A
O287       Cd292   2.442       .  S
C288        O297   1.264       .  A
C288        O293   1.267       .  A
C288       C1064   1.490       .  S
O289        C295   1.269   1_655  A
O289       Cd292   2.501       .  S
C290        O298   1.266       .  A
C290        C602   1.485       .  S
C291        O296   1.267       .  A
C291        O294   1.264       .  A
C291        C560   1.490       .  S
Cd292       O299   2.428       .  S
Cd292       O298   2.461   1_545  S
Cd292       O297   2.433       .  S
Cd292       O293   2.492       .  S
Cd292       O296   2.483   1_545  S
Cd292       O294   2.449   1_545  S
C295        O299   1.264   1_455  A
C295        C546   1.490       .  S
O300        C303   1.267       .  A
O300       Cd305   2.463       .  S
C301        O310   1.264       .  A
C301        O306   1.266       .  A
C301        C532   1.499       .  S
O302        C308   1.268       .  A
O302       Cd305   2.484       .  S
C303        O311   1.266       .  A
C303        C644   1.497       .  S
C304        O309   1.268       .  A
C304        O307   1.264       .  A
C304        C557   1.490       .  S
Cd305       O312   2.444       .  S
Cd305       O311   2.470       .  S
Cd305       O310   2.451       .  S
Cd305       O306   2.496       .  S
Cd305       O309   2.493       .  S
Cd305       O307   2.430       .  S
C308        O312   1.264       .  A
C308       C1078   1.485       .  S
O313        C316   1.266       .  A
O313       Cd318   2.462       .  S
C314        O323   1.264       .  A
C314        O319   1.266       .  A
C314        C907   1.492       .  S
O315        C321   1.269       .  A
O315       Cd318   2.504       .  S
C316        O324   1.267   1_545  A
C316        C501   1.493       .  S
C317        O322   1.268       .  A
C317        O320   1.265       .  A
C317        C518   1.489       .  S
Cd318       O325   2.413       .  S
Cd318       O324   2.458   1_545  S
Cd318       O323   2.447       .  S
Cd318       O319   2.471       .  S
Cd318       O322   2.472   1_545  S
Cd318       O320   2.450   1_545  S
C321        O325   1.262       .  A
C321        C571   1.493       .  S
O326        C329   1.267       .  A
O326       Cd331   2.465       .  S
C327        O336   1.264       .  A
C327        O332   1.267       .  A
C327        C588   1.488       .  S
O328        C334   1.268       .  A
O328       Cd331   2.484       .  S
C329        O337   1.266       .  A
C329        C487   1.497       .  S
C330        O335   1.267       .  A
C330        O333   1.265       .  A
C330        C515   1.491       .  S
Cd331       O338   2.419       .  S
Cd331       O337   2.466       .  S
Cd331       O336   2.453       .  S
Cd331       O332   2.477       .  S
Cd331       O335   2.482       .  S
Cd331       O333   2.436       .  S
C334        O338   1.262       .  A
C334        C938   1.484       .  S
O339        C342   1.268       .  A
O339       Cd344   2.490       .  S
C340        O349   1.266       .  A
C340        O345   1.268       .  A
C340        C459   1.493       .  S
O341        C347   1.269   1_655  A
O341       Cd344   2.495       .  S
C342        O350   1.263       .  A
C342        C767   1.494       .  S
C343        O348   1.268       .  A
C343        O346   1.265       .  A
C343        C473   1.497       .  S
Cd344       O351   2.424   1_655  S
Cd344       O350   2.435       .  S
Cd344       O349   2.444       .  S
Cd344       O345   2.491       .  S
Cd344       O348   2.508       .  S
Cd344       O346   2.452       .  S
C347        O351   1.264       .  A
C347        C686   1.492       .  S
O352        C355   1.267       .  A
O352       Cd357   2.482       .  S
C353        O362   1.264       .  A
C353        O358   1.267       .  A
C353        C714   1.497       .  S
O354        C360   1.268       .  A
O354       Cd357   2.502       .  S
C355        O363   1.266       .  A
C355        C490   1.501       .  S
C356        O361   1.269       .  A
C356        O359   1.263       .  A
C356        C756   1.488       .  S
Cd357       O364   2.465       .  S
Cd357       O363   2.468       .  S
Cd357       O362   2.459       .  S
Cd357       O358   2.490       .  S
Cd357       O361   2.505       .  S
Cd357       O359   2.431       .  S
C360        O364   1.265       .  A
C360        C476   1.497       .  S
O365        C368   1.268       .  A
O365       Cd370   2.459       .  S
C366        O375   1.264       .  A
C366        O371   1.269       .  A
C366        C840   1.487       .  S
O367        C373   1.268   1_455  A
O367       Cd370   2.478       .  S
C368        O376   1.265       .  A
C368        C462   1.493       .  S
C369        O374   1.267       .  A
C369        O372   1.265       .  A
C369        C448   1.484       .  S
Cd370       O377   2.409       .  S
Cd370       O376   2.473       .  S
Cd370       O375   2.432       .  S
Cd370       O371   2.505       .  S
Cd370       O374   2.476       .  S
Cd370       O372   2.438       .  S
C373        O377   1.263   1_655  A
C373        C630   1.484       .  S
O378        C381   1.270       .  A
O378       Cd383   2.474       .  S
C379        O388   1.263       .  A
C379        O384   1.269       .  A
C379        C658   1.487       .  S
O380        C386   1.270       .  A
O380       Cd383   2.497       .  S
C381        O389   1.265       .  A
C381        C431   1.491       .  S
C382        O387   1.268       .  A
C382        O385   1.266       .  A
C382        C445   1.495       .  S
Cd383       O390   2.436       .  S
Cd383       O389   2.439       .  S
Cd383       O388   2.423       .  S
Cd383       O384   2.512       .  S
Cd383       O387   2.478       .  S
Cd383       O385   2.476       .  S
C386        O390   1.264       .  A
C386        C865   1.489       .  S
O391        C394   1.268       .  A
O391       Cd396   2.487       .  S
C392        O401   1.266   1_565  A
C392        O397   1.268       .  A
C392        C504   1.491       .  S
O393        C399   1.270       .  A
O393       Cd396   2.499       .  S
C394        O402   1.264       .  A
C394        C812   1.487       .  S
C395        O400   1.269       .  A
C395        O398   1.266   1_545  A
C395        C417   1.488       .  S
Cd396       O403   2.421       .  S
Cd396       O402   2.415       .  S
Cd396       O401   2.439   1_565  S
Cd396       O397   2.458       .  S
Cd396       O400   2.477   1_565  S
Cd396       O398   2.433       .  S
C399        O403   1.263       .  A
C399        C529   1.489       .  S
O404        C407   1.268       .  A
O404       Cd409   2.504       .  S
C405        O414   1.265       .  A
C405        O410   1.267       .  A
C405        C434   1.491       .  S
O406        C412   1.268       .  A
O406       Cd409   2.491       .  S
C407        O415   1.265       .  A
C407        C543   1.498       .  S
C408        O413   1.268       .  A
C408        O411   1.263       .  A
C408        C420   1.486       .  S
Cd409       O416   2.439       .  S
Cd409       O415   2.450       .  S
Cd409       O414   2.461       .  S
Cd409       O410   2.471       .  S
Cd409       O413   2.497       .  S
Cd409       O411   2.432       .  S
C412        O416   1.265       .  A
C412        C795   1.487       .  S
C417        C418   1.414       .  A
C417        C422   1.415       .  A
C418        C419   1.415       .  A
C418        C423   1.451       .  S
C419        C420   1.414       .  A
C419        C426   1.451       .  S
C420        C421   1.414       .  A
C421        C422   1.408       .  A
C421        C424   1.453       .  S
C422        C425   1.453   1_545  S
C423        N430   1.157       .  T
C424        N429   1.157       .  T
C425        N427   1.157       .  T
C426        N428   1.157       .  T
C431        C432   1.415       .  A
C431        C436   1.416       .  A
C432        C433   1.412       .  A
C432        C437   1.452       .  S
C433        C434   1.415       .  A
C433        C440   1.451       .  S
C434        C435   1.414       .  A
C435        C436   1.413       .  A
C435        C438   1.452       .  S
C436        C439   1.452       .  S
C437        N444   1.157       .  T
C438        N443   1.158       .  T
C439        N441   1.158       .  T
C440        N442   1.157       .  T
C445        C446   1.418       .  A
C445        C450   1.418       .  A
C446        C447   1.414       .  A
C446        C451   1.451       .  S
C447        C448   1.412       .  A
C447        C454   1.451       .  S
C448        C449   1.412       .  A
C449        C450   1.411       .  A
C449        C452   1.454       .  S
C450        C453   1.450       .  S
C451        N458   1.157       .  T
C452        N457   1.157       .  T
C453        N455   1.157       .  T
C454        N456   1.157       .  T
C459        C460   1.416   1_655  A
C459        C464   1.415   1_556  A
C460        C461   1.410   1_556  A
C460        C465   1.452       .  S
C461        C462   1.413       .  A
C461        C468   1.452       .  S
C462        C463   1.419   1_455  A
C463        C464   1.416       .  A
C463        C466   1.452       .  S
C464        C467   1.451       .  S
C465        N472   1.157       .  T
C466        N471   1.158       .  T
C467        N469   1.158   1_554  T
C468        N470   1.157       .  T
C473        C474   1.416       .  A
C473        C478   1.416       .  A
C474        C475   1.415       .  A
C474        C479   1.451       .  S
C475        C476   1.416       .  A
C475        C482   1.452       .  S
C476        C477   1.415       .  A
C477        C478   1.414       .  A
C477        C480   1.451       .  S
C478        C481   1.452       .  S
C479        N486   1.157       .  T
C480        N485   1.157       .  T
C481        N483   1.157       .  T
C482        N484   1.157       .  T
C487        C488   1.418       .  A
C487        C492   1.415       .  A
C488        C489   1.414       .  A
C488        C493   1.452       .  S
C489        C490   1.417       .  A
C489        C496   1.452       .  S
C490        C491   1.420       .  A
C491        C492   1.414       .  A
C491        C494   1.452       .  S
C492        C495   1.452       .  S
C493        N500   1.158       .  T
C494        N499   1.158       .  T
C495        N497   1.157       .  T
C496        N498   1.157       .  T
C501        C502   1.415       .  A
C501        C506   1.417   1_545  A
C502        C503   1.412       .  A
C502        C507   1.452       .  S
C503        C504   1.418   1_545  A
C503        C510   1.453       .  S
C504        C505   1.414       .  A
C505        C506   1.412       .  A
C505        C508   1.452       .  S
C506        C509   1.452       .  S
C507        N514   1.158       .  T
C508        N513   1.158       .  T
C509        N511   1.157       .  T
C510        N512   1.157       .  T
C515        C516   1.416       .  A
C515        C520   1.415       .  A
C516        C517   1.413       .  A
C516        C521   1.451       .  S
C517        C518   1.415       .  A
C517        C524   1.452       .  S
C518        C519   1.414       .  A
C519        C520   1.410       .  A
C519        C522   1.452       .  S
C520        C523   1.453       .  S
C521        N528   1.158       .  T
C522        N527   1.157       .  T
C523        N525   1.157       .  T
C524        N526   1.157       .  T
C529        C530   1.414       .  A
C529        C534   1.413       .  A
C530        C531   1.410       .  A
C530        C535   1.453       .  S
C531        C532   1.418       .  A
C531        C538   1.453       .  S
C532        C533   1.419       .  A
C533        C534   1.415       .  A
C533        C536   1.450       .  S
C534        C537   1.451       .  S
C535        N542   1.157       .  T
C536        N541   1.158       .  T
C537        N539   1.157       .  T
C538        N540   1.158       .  T
C543        C544   1.419       .  A
C543        C548   1.418       .  A
C544        C545   1.417       .  A
C544        C549   1.450       .  S
C545        C546   1.414       .  A
C545        C552   1.451       .  S
C546        C547   1.413       .  A
C547        C548   1.410       .  A
C547        C550   1.453       .  S
C548        C551   1.452       .  S
C549        N556   1.157       .  T
C550        N555   1.158       .  T
C551        N553   1.157       .  T
C552        N554   1.157   1_455  T
C557        C558   1.416       .  A
C557        C562   1.415       .  A
C558        C559   1.410       .  A
C558        C563   1.452       .  S
C559        C560   1.414       .  A
C559        C566   1.451       .  S
C560        C561   1.416       .  A
C561        C562   1.413       .  A
C561        C564   1.452       .  S
C562        C565   1.451       .  S
C563        N570   1.157       .  T
C564        N569   1.158       .  T
C565        N567   1.158       .  T
C566        N568   1.157       .  T
C571        C572   1.418       .  A
C571        C576   1.417       .  A
C572        C573   1.408       .  A
C572        C577   1.453       .  S
C573        C574   1.412       .  A
C573        C580   1.454       .  S
C574        C575   1.412       .  A
C575        C576   1.415       .  A
C575        C578   1.451       .  S
C576        C579   1.451       .  S
C577        N584   1.158       .  T
C578        N583   1.157       .  T
C579        N581   1.157   1_545  T
C580        N582   1.158       .  T
C585        C586   1.413       .  A
C585        C590   1.413       .  A
C586        C587   1.412       .  A
C586        C591   1.451       .  S
C587        C588   1.414       .  A
C587        C594   1.451       .  S
C588        C589   1.414       .  A
C589        C590   1.411       .  A
C589        C592   1.452       .  S
C590        C593   1.452       .  S
C591        N598   1.157   1_655  T
C592        N597   1.158       .  T
C593        N595   1.157       .  T
C594        N596   1.157       .  T
C599        C600   1.416       .  A
C599        C604   1.415   1_565  A
C600        C601   1.412   1_455  A
C600        C605   1.452       .  S
C601        C602   1.413       .  A
C601        C608   1.452       .  S
C602        C603   1.414   1_665  A
C603        C604   1.410       .  A
C603        C606   1.453       .  S
C604        C607   1.451       .  S
C605        N612   1.157       .  T
C606        N611   1.158       .  T
C607        N609   1.157       .  T
C608        N610   1.157       .  T
C613        C614   1.415       .  A
C613        C618   1.416       .  A
C614        C615   1.412       .  A
C614        C619   1.452       .  S
C615        C616   1.414       .  A
C615        C622   1.452       .  S
C616        C617   1.415       .  A
C617        C618   1.413       .  A
C617        C620   1.452       .  S
C618        C621   1.452       .  S
C619        N626   1.157       .  T
C620        N625   1.157       .  T
C621        N623   1.157       .  T
C622        N624   1.157       .  T
C627        C628   1.415       .  A
C627        C632   1.416       .  A
C628        C629   1.407       .  A
C628        C633   1.453       .  S
C629        C630   1.414       .  A
C629        C636   1.453       .  S
C630        C631   1.414       .  A
C631        C632   1.413       .  A
C631        C634   1.451       .  S
C632        C635   1.451       .  S
C633        N640   1.157       .  T
C634        N639   1.157   1_655  T
C635        N637   1.157       .  T
C636        N638   1.158       .  T
C641        C642   1.415       .  A
C641        C646   1.416       .  A
C642        C643   1.413       .  A
C642        C647   1.453       .  S
C643        C644   1.419       .  A
C643        C650   1.452       .  S
C644        C645   1.417       .  A
C645        C646   1.412       .  A
C645        C648   1.452       .  S
C646        C649   1.453       .  S
C647        N654   1.158       .  T
C648        N653   1.157       .  T
C649        N651   1.158       .  T
C650        N652   1.157       .  T
C655        C656   1.419       .  A
C655        C660   1.419       .  A
C656        C657   1.417       .  A
C656        C661   1.450       .  S
C657        C658   1.411       .  A
C657        C664   1.450       .  S
C658        C659   1.411       .  A
C659        C660   1.409       .  A
C659        C662   1.454       .  S
C660        C663   1.453       .  S
C661        N668   1.157       .  T
C662        N667   1.157       .  T
C663        N665   1.158       .  T
C664        N666   1.157       .  T
C669        C670   1.414       .  A
C669        C674   1.413       .  A
C670        C671   1.409       .  A
C670        C675   1.453       .  S
C671        C672   1.416       .  A
C671        C678   1.453       .  S
C672        C673   1.415       .  A
C673        C674   1.416       .  A
C673        C676   1.450       .  S
C674        C677   1.450       .  S
C675        N682   1.157       .  T
C676        N681   1.157       .  T
C677        N679   1.157       .  T
C678        N680   1.157       .  T
C683        C684   1.414       .  A
C683        C688   1.413       .  A
C684        C685   1.416       .  A
C684        C689   1.450       .  S
C685        C686   1.416       .  A
C685        C692   1.450       .  S
C686        C687   1.417       .  A
C687        C688   1.407       .  A
C687        C690   1.453       .  S
C688        C691   1.454       .  S
C689        N696   1.157       .  T
C690        N695   1.158       .  T
C691        N693   1.157       .  T
C692        N694   1.157       .  T
C697        C698   1.417       .  A
C697        C702   1.415       .  A
C698        C699   1.413       .  A
C698        C703   1.453       .  S
C699        C700   1.417       .  A
C699        C706   1.452       .  S
C700        C701   1.420       .  A
C701        C702   1.413       .  A
C701        C704   1.452       .  S
C702        C705   1.453       .  S
C703        N710   1.158       .  T
C704        N709   1.158       .  T
C705        N707   1.157       .  T
C706        N708   1.157       .  T
C711        C712   1.411       .  A
C711        C716   1.412       .  A
C712        C713   1.414       .  A
C712        C717   1.452       .  S
C713        C714   1.419       .  A
C713        C720   1.451       .  S
C714        C715   1.418       .  A
C715        C716   1.412       .  A
C715        C718   1.452       .  S
C716        C719   1.453       .  S
C717        N724   1.157       .  T
C718        N723   1.158       .  T
C719        N721   1.158       .  T
C720        N722   1.157       .  T
C725        C726   1.415       .  A
C725        C730   1.415       .  A
C726        C727   1.411   1_556  A
C726        C731   1.452       .  S
C727        C728   1.415       .  A
C727        C734   1.452       .  S
C728        C729   1.415       .  A
C729        C730   1.412   1_554  A
C729        C732   1.452       .  S
C730        C733   1.452       .  S
C731        N738   1.157       .  T
C732        N737   1.157       .  T
C733        N735   1.157       .  T
C734        N736   1.157       .  T
C739        C740   1.417       .  A
C739        C744   1.419       .  A
C740        C741   1.414       .  A
C740        C745   1.451       .  S
C741        C742   1.415       .  A
C741        C748   1.452       .  S
C742        C743   1.413       .  A
C743        C744   1.413       .  A
C743        C746   1.452       .  S
C744        C747   1.452       .  S
C745        N752   1.158       .  T
C746        N751   1.157       .  T
C747        N749   1.157       .  T
C748        N750   1.157       .  T
C753        C754   1.417       .  A
C753        C758   1.417       .  A
C754        C755   1.409       .  A
C754        C759   1.453       .  S
C755        C756   1.414       .  A
C755        C762   1.453       .  S
C756        C757   1.414       .  A
C757        C758   1.416       .  A
C757        C760   1.451       .  S
C758        C761   1.451       .  S
C759        N766   1.158       .  T
C760        N765   1.157       .  T
C761        N763   1.157       .  T
C762        N764   1.157       .  T
C767        C768   1.416       .  A
C767        C772   1.417       .  A
C768        C769   1.414       .  A
C768        C773   1.451       .  S
C769        C770   1.414       .  A
C769        C776   1.451       .  S
C770        C771   1.414       .  A
C771        C772   1.411       .  A
C771        C774   1.453       .  S
C772        C775   1.453       .  S
C773        N780   1.157       .  T
C774        N779   1.157       .  T
C775        N777   1.158       .  T
C776        N778   1.157       .  T
C781        C782   1.415       .  A
C781        C786   1.414       .  A
C782        C783   1.410       .  A
C782        C787   1.453       .  S
C783        C784   1.415       .  A
C783        C790   1.453       .  S
C784        C785   1.415       .  A
C785        C786   1.416       .  A
C785        C788   1.450       .  S
C786        C789   1.450       .  S
C787        N794   1.157       .  T
C788        N793   1.157       .  T
C789        N791   1.157       .  T
C790        N792   1.158   1_545  T
C795        C796   1.412       .  A
C795        C800   1.412       .  A
C796        C797   1.411       .  A
C796        C801   1.453       .  S
C797        C798   1.419       .  A
C797        C804   1.452       .  S
C798        C799   1.419       .  A
C799        C800   1.414       .  A
C799        C802   1.451       .  S
C800        C803   1.451       .  S
C801        N808   1.158       .  T
C802        N807   1.157       .  T
C803        N805   1.157       .  T
C804        N806   1.158       .  T
C809        C810   1.420       .  A
C809        C814   1.417       .  A
C810        C811   1.407       .  A
C810        C815   1.453       .  S
C811        C812   1.413       .  A
C811        C818   1.455       .  S
C812        C813   1.414       .  A
C813        C814   1.415       .  A
C813        C816   1.451       .  S
C814        C817   1.451       .  S
C815        N822   1.158       .  T
C816        N821   1.157       .  T
C817        N819   1.157       .  T
C818        N820   1.157       .  T
C823        C824   1.415       .  A
C823        C828   1.416       .  A
C824        C825   1.417       .  A
C824        C829   1.450       .  S
C825        C826   1.415       .  A
C825        C832   1.450       .  S
C826        C827   1.416       .  A
C827        C828   1.411       .  A
C827        C830   1.453       .  S
C828        C831   1.452       .  S
C829        N836   1.157       .  T
C830        N835   1.158       .  T
C831        N833   1.157       .  T
C832        N834   1.157       .  T
C837        C838   1.418       .  A
C837        C842   1.417       .  A
C838        C839   1.418       .  A
C838        C843   1.450       .  S
C839        C840   1.413       .  A
C839        C846   1.450       .  S
C840        C841   1.412       .  A
C841        C842   1.408       .  A
C841        C844   1.453       .  S
C842        C845   1.453       .  S
C843        N850   1.157       .  T
C844        N849   1.157       .  T
C845        N847   1.158       .  T
C846        N848   1.157       .  T
C851        C852   1.414       .  A
C851        C856   1.417       .  A
C852        C853   1.412       .  A
C852        C857   1.452       .  S
C853        C854   1.417       .  A
C853        C860   1.453       .  S
C854        C855   1.412       .  A
C855        C856   1.412       .  A
C855        C858   1.451       .  S
C856        C859   1.452       .  S
C857        N864   1.157       .  T
C858        N863   1.157       .  T
C859        N861   1.157       .  T
C860        N862   1.158       .  T
C865        C866   1.413       .  A
C865        C870   1.413       .  A
C866        C867   1.415       .  A
C866        C871   1.451       .  S
C867        C868   1.416       .  A
C867        C874   1.450       .  S
C868        C869   1.417       .  A
C869        C870   1.411       .  A
C869        C872   1.452       .  S
C870        C873   1.453       .  S
C871        N878   1.158       .  T
C872        N877   1.158       .  T
C873        N875   1.157       .  T
C874        N876   1.157       .  T
C879        C880   1.420   1_545  A
C879        C884   1.416       .  A
C880        C881   1.414       .  A
C880        C885   1.452       .  S
C881        C882   1.416   1_554  A
C881        C888   1.453       .  S
C882        C883   1.419   1_565  A
C883        C884   1.413   1_556  A
C883        C886   1.453       .  S
C884        C887   1.452       .  S
C885        N892   1.157       .  T
C886        N891   1.158       .  T
C887        N889   1.157       .  T
C888        N890   1.158       .  T
C893        C894   1.412       .  A
C893        C898   1.413       .  A
C894        C895   1.413       .  A
C894        C899   1.453       .  S
C895        C896   1.418       .  A
C895        C902   1.451       .  S
C896        C897   1.419       .  A
C897        C898   1.412       .  A
C897        C900   1.452       .  S
C898        C901   1.452       .  S
C899        N906   1.158       .  T
C900        N905   1.157       .  T
C901        N903   1.158       .  T
C902        N904   1.157       .  T
C907        C908   1.418       .  A
C907        C912   1.417       .  A
C908        C909   1.412       .  A
C908        C913   1.451       .  S
C909        C910   1.411       .  A
C909        C916   1.451       .  S
C910        C911   1.412       .  A
C911        C912   1.409       .  A
C911        C914   1.453       .  S
C912        C915   1.453       .  S
C913        N920   1.157       .  T
C914        N919   1.157       .  T
C915        N917   1.158       .  T
C916        N918   1.157       .  T
C921        C922   1.418       .  A
C921        C926   1.417       .  A
C922        C923   1.411       .  A
C922        C927   1.452       .  S
C923        C924   1.415       .  A
C923        C930   1.453       .  S
C924        C925   1.418       .  A
C925        C926   1.413       .  A
C925        C928   1.452       .  S
C926        C929   1.452       .  S
C927        N934   1.157       .  T
C928        N933   1.158       .  T
C929        N931   1.158       .  T
C930        N932   1.157       .  T
C935        C936   1.415       .  A
C935        C940   1.417       .  A
C936        C937   1.408       .  A
C936        C941   1.453       .  S
C937        C938   1.413       .  A
C937        C944   1.452       .  S
C938        C939   1.413       .  A
C939        C940   1.413       .  A
C939        C942   1.452       .  S
C940        C943   1.451       .  S
C941        N948   1.158       .  T
C942        N947   1.158       .  T
C943        N945   1.157       .  T
C944        N946   1.157       .  T
C949        C950   1.417       .  A
C949        C954   1.416   1_655  A
C950        C951   1.413   1_655  A
C950        C955   1.453       .  S
C951        C952   1.416       .  A
C951        C958   1.452       .  S
C952        C953   1.415       .  A
C953        C954   1.412       .  A
C953        C956   1.451       .  S
C954        C957   1.452   1_455  S
C955        N962   1.158       .  T
C956        N961   1.157       .  T
C957        N959   1.158       .  T
C958        N960   1.157       .  T
C963        C964   1.416       .  A
C963        C968   1.419       .  A
C964        C965   1.410       .  A
C964        C969   1.452       .  S
C965        C966   1.413       .  A
C965        C972   1.452       .  S
C966        C967   1.412       .  A
C967        C968   1.413       .  A
C967        C970   1.452       .  S
C968        C971   1.452       .  S
C969        N976   1.157       .  T
C970        N975   1.158       .  T
C971        N973   1.158       .  T
C972        N974   1.157       .  T
C977        C978   1.412       .  A
C977        C982   1.412       .  A
C978        C979   1.415       .  A
C978        C983   1.451       .  S
C979        C980   1.419       .  A
C979        C986   1.451       .  S
C980        C981   1.417       .  A
C981        C982   1.410       .  A
C981        C984   1.452       .  S
C982        C985   1.453       .  S
C983        N990   1.157       .  T
C984        N989   1.157       .  T
C985        N987   1.158       .  T
C986        N988   1.158       .  T
C991        C992   1.418       .  A
C991        C996   1.417       .  A
C992        C993   1.414       .  A
C992        C997   1.451       .  S
C993        C994   1.411       .  A
C993       C1000   1.451       .  S
C994        C995   1.411       .  A
C995        C996   1.406       .  A
C995        C998   1.453       .  S
C996        C999   1.453       .  S
C997       N1004   1.158       .  T
C998       N1003   1.157       .  T
C999       N1001   1.158       .  T
C1000      N1002   1.157       .  T
C1005      C1006   1.413       .  A
C1005      C1010   1.413       .  A
C1006      C1007   1.411       .  A
C1006      C1011   1.453       .  S
C1007      C1008   1.419       .  A
C1007      C1014   1.453       .  S
C1008      C1009   1.418       .  A
C1009      C1010   1.415       .  A
C1009      C1012   1.451       .  S
C1010      C1013   1.452       .  S
C1011      N1018   1.157       .  T
C1012      N1017   1.157       .  T
C1013      N1015   1.157       .  T
C1014      N1016   1.158       .  T
C1019      C1020   1.413       .  A
C1019      C1024   1.413       .  A
C1020      C1021   1.408       .  A
C1020      C1025   1.453       .  S
C1021      C1022   1.415       .  A
C1021      C1028   1.452       .  S
C1022      C1023   1.417       .  A
C1023      C1024   1.415       .  A
C1023      C1026   1.451       .  S
C1024      C1027   1.450       .  S
C1025      N1032   1.157       .  T
C1026      N1031   1.157       .  T
C1027      N1029   1.157   1_455  T
C1028      N1030   1.158       .  T
C1033      C1034   1.415       .  A
C1033      C1038   1.414       .  A
C1034      C1035   1.411       .  A
C1034      C1039   1.453       .  S
C1035      C1036   1.417       .  A
C1035      C1042   1.452       .  S
C1036      C1037   1.418       .  A
C1037      C1038   1.412       .  A
C1037      C1040   1.452       .  S
C1038      C1041   1.452       .  S
C1039      N1046   1.157       .  T
C1040      N1045   1.157       .  T
C1041      N1043   1.158       .  T
C1042      N1044   1.157       .  T
C1047      C1048   1.410       .  A
C1047      C1052   1.409       .  A
C1048      C1049   1.414       .  A
C1048      C1053   1.451       .  S
C1049      C1050   1.417       .  A
C1049      C1056   1.450       .  S
C1050      C1051   1.420       .  A
C1051      C1052   1.409       .  A
C1051      C1054   1.453       .  S
C1052      C1055   1.454       .  S
C1053      N1060   1.157       .  T
C1054      N1059   1.158   1_655  T
C1055      N1057   1.158       .  T
C1056      N1058   1.157       .  T
C1061      C1062   1.412       .  A
C1061      C1066   1.413       .  A
C1062      C1063   1.408       .  A
C1062      C1067   1.452       .  S
C1063      C1064   1.415       .  A
C1063      C1070   1.452       .  S
C1064      C1065   1.417       .  A
C1065      C1066   1.416       .  A
C1065      C1068   1.451       .  S
C1066      C1069   1.450       .  S
C1067      N1074   1.157       .  T
C1068      N1073   1.157       .  T
C1069      N1071   1.158       .  T
C1070      N1072   1.158       .  T
C1075      C1076   1.418       .  A
C1075      C1080   1.417       .  A
C1076      C1077   1.414       .  A
C1076      C1081   1.451       .  S
C1077      C1078   1.413       .  A
C1077      C1084   1.452       .  S
C1078      C1079   1.412       .  A
C1079      C1080   1.409       .  A
C1079      C1082   1.451       .  S
C1080      C1083   1.453       .  S
C1081      N1088   1.158       .  T
C1082      N1087   1.157       .  T
C1083      N1085   1.158       .  T
C1084      N1086   1.157       .  T
C1089      C1090   1.413       .  A
C1089      C1094   1.412       .  A
C1090      C1091   1.416       .  A
C1090      C1095   1.451       .  S
C1091      C1092   1.417       .  A
C1091      C1098   1.450       .  S
C1092      C1093   1.418       .  A
C1093      C1094   1.407       .  A
C1093      C1096   1.454       .  S
C1094      C1097   1.452       .  S
C1095      N1102   1.157       .  T
C1096      N1101   1.158       .  T
C1097      N1099   1.157       .  T
C1098      N1100   1.157       .  T
C1103      C1104   1.414       .  A
C1103      C1108   1.416       .  A
C1104      C1105   1.411       .  A
C1104      C1109   1.451       .  S
C1105      C1106   1.414       .  A
C1105      C1112   1.452       .  S
C1106      C1107   1.413       .  A
C1107      C1108   1.412       .  A
C1107      C1110   1.452       .  S
C1108      C1111   1.451       .  S
C1109      N1116   1.157       .  T
C1110      N1115   1.157       .  T
C1111      N1113   1.157       .  T
C1112      N1114   1.157       .  T
C1117      C1118   1.414       .  A
C1117      C1122   1.414       .  A
C1118      C1119   1.414       .  A
C1118      C1123   1.452       .  S
C1119      C1120   1.418       .  A
C1119      C1126   1.452       .  S
C1120      C1121   1.416       .  A
C1121      C1122   1.413       .  A
C1121      C1124   1.451       .  S
C1122      C1125   1.451       .  S
C1123      N1130   1.157       .  T
C1124      N1129   1.157       .  T
C1125      N1127   1.157       .  T
C1126      N1128   1.158       .  T
C1131      C1132   1.411       .  A
C1131      C1136   1.413       .  A
C1132      C1133   1.415       .  A
C1132      C1137   1.452       .  S
C1133      C1134   1.423       .  A
C1133      C1140   1.451       .  S
C1134      C1135   1.423       .  A
C1135      C1136   1.410       .  A
C1135      C1138   1.453       .  S
C1136      C1139   1.455       .  S
C1137      N1144   1.157       .  T
C1138      N1143   1.158       .  T
C1139      N1141   1.158       .  T
C1140      N1142   1.158       .  T
C1145      C1146   1.417       .  A
C1145      C1150   1.416       .  A
C1146      C1147   1.414       .  A
C1146      C1151   1.451       .  S
C1147      C1148   1.412       .  A
C1147      C1154   1.451       .  S
C1148      C1149   1.412       .  A
C1149      C1150   1.408       .  A
C1149      C1152   1.453       .  S
C1150      C1153   1.453       .  S
C1151      N1158   1.157       .  T
C1152      N1157   1.157       .  T
C1153      N1155   1.157       .  T
C1154      N1156   1.157       .  T
C1159      C1160   1.419       .  A
C1159      C1164   1.415       .  A
C1160      C1161   1.411       .  A
C1160      C1165   1.452       .  S
C1161      C1162   1.413       .  A
C1161      C1168   1.453       .  S
C1162      C1163   1.419       .  A
C1163      C1164   1.412       .  A
C1163      C1166   1.453       .  S
C1164      C1167   1.453       .  S
C1165      N1172   1.158       .  T
C1166      N1171   1.158       .  T
C1167      N1169   1.157       .  T
C1168      N1170   1.157       .  T
C1173      C1174   1.414       .  A
C1173      C1178   1.413       .  A
C1174      C1175   1.416       .  A
C1174      C1179   1.451       .  S
C1175      C1176   1.417       .  A
C1175      C1182   1.451       .  S
C1176      C1177   1.416       .  A
C1177      C1178   1.410       .  A
C1177      C1180   1.453       .  S
C1178      C1181   1.451       .  S
C1179      N1186   1.157       .  T
C1180      N1185   1.158       .  T
C1181      N1183   1.157       .  T
C1182      N1184   1.158       .  T
C1187      C1188   1.412       .  A
C1187      C1192   1.413       .  A
C1188      C1189   1.410       .  A
C1188      C1193   1.453       .  S
C1189      C1190   1.418       .  A
C1189      C1196   1.452       .  S
C1190      C1191   1.417       .  A
C1191      C1192   1.415       .  A
C1191      C1194   1.451       .  S
C1192      C1195   1.451       .  S
C1193      N1200   1.157       .  T
C1194      N1199   1.157       .  T
C1195      N1197   1.158   1_655  T
C1196      N1198   1.158       .  T
C1201      C1202   1.419       .  A
C1201      C1206   1.418       .  A
C1202      C1203   1.415       .  A
C1202      C1207   1.451       .  S
C1203      C1204   1.415       .  A
C1203      C1210   1.452       .  S
C1204      C1205   1.416       .  A
C1205      C1206   1.414       .  A
C1205      C1208   1.452       .  S
C1206      C1209   1.452       .  S
C1207      N1214   1.157       .  T
C1208      N1213   1.157       .  T
C1209      N1211   1.158       .  T
C1210      N1212   1.158       .  T
C1215      C1216   1.418       .  A
C1215      C1220   1.418       .  A
C1216      C1217   1.410       .  A
C1216      C1221   1.453       .  S
C1217      C1218   1.413       .  A
C1217      C1224   1.452       .  S
C1218      C1219   1.413       .  A
C1219      C1220   1.415       .  A
C1219      C1222   1.451       .  S
C1220      C1223   1.451       .  S
C1221      N1228   1.158       .  T
C1222      N1227   1.157       .  T
C1223      N1225   1.157       .  T
C1224      N1226   1.157       .  T
C1229      C1230   1.412       .  A
C1229      C1234   1.411       .  A
C1230      C1231   1.413       .  A
C1230      C1235   1.451       .  S
C1231      C1232   1.415       .  A
C1231      C1238   1.451       .  S
C1232      C1233   1.413       .  A
C1233      C1234   1.408       .  A
C1233      C1236   1.452       .  S
C1234      C1237   1.451       .  S
C1235      N1242   1.157   1_455  T
C1236      N1241   1.157       .  T
C1237      N1239   1.157       .  T
C1238      N1240   1.157       .  T
C1243      C1244   1.417   1_655  A
C1243      C1248   1.415   1_565  A
C1244      C1245   1.412   1_554  A
C1244      C1249   1.452       .  S
C1245      C1246   1.413   1_565  A
C1245      C1252   1.452       .  S
C1246      C1247   1.415       .  A
C1247      C1248   1.412   1_456  A
C1247      C1250   1.452   1_455  S
C1248      C1251   1.452       .  S
C1249      N1256   1.158       .  T
C1250      N1255   1.158       .  T
C1251      N1253   1.157       .  T
C1252      N1254   1.157       .  T
C1257      C1258   1.416       .  A
C1257      C1262   1.416       .  A
C1258      C1259   1.413       .  A
C1258      C1263   1.451       .  S
C1259      C1260   1.412       .  A
C1259      C1266   1.452       .  S
C1260      C1261   1.411       .  A
C1261      C1262   1.410       .  A
C1261      C1264   1.452       .  S
C1262      C1265   1.452       .  S
C1263      N1270   1.157       .  T
C1264      N1269   1.158       .  T
C1265      N1267   1.157       .  T
C1266      N1268   1.157       .  T
C1271      C1272   1.418       .  A
C1271      C1276   1.418       .  A
C1272      C1273   1.415       .  A
C1272      C1277   1.451       .  S
C1273      C1274   1.412       .  A
C1273      C1280   1.452       .  S
C1274      C1275   1.409       .  A
C1275      C1276   1.407       .  A
C1275      C1278   1.453       .  S
C1276      C1279   1.452       .  S
C1277      N1284   1.158       .  T
C1278      N1283   1.157       .  T
C1279      N1281   1.157       .  T
C1280      N1282   1.158       .  T
C1285      C1286   1.413       .  A
C1285      C1290   1.414       .  A
C1286      C1287   1.413       .  A
C1286      C1291   1.452       .  S
C1287      C1288   1.416       .  A
C1287      C1294   1.451       .  S
C1288      C1289   1.415       .  A
C1289      C1290   1.411       .  A
C1289      C1292   1.452       .  S
C1290      C1293   1.452       .  S
C1291      N1298   1.157       .  T
C1292      N1297   1.157       .  T
C1293      N1295   1.157       .  T
C1294      N1296   1.157       .  T
C1299      C1300   1.411       .  A
C1299      C1304   1.413       .  A
C1300      C1301   1.414       .  A
C1300      C1305   1.451       .  S
C1301      C1302   1.419       .  A
C1301      C1308   1.450       .  S
C1302      C1303   1.419       .  A
C1303      C1304   1.411       .  A
C1303      C1306   1.452       .  S
C1304      C1307   1.453       .  S
C1305      N1312   1.157       .  T
C1306      N1311   1.158       .  T
C1307      N1309   1.157   1_545  T
C1308      N1310   1.157       .  T
