geometry optimzed in LAMMPS
_audit_creation_date              2020-12-01 
_audit_creation_method            'lammps2cif' 
_symmetry_space_group_name_H-M    'P1' 
_symmetry_Int_Tables_number       1 
_symmetry_cell_setting            triclinic 
loop_ 
_symmetry_equiv_pos_as_xyz 
  x,y,z 
_cell_length_a                    52.57376502 
_cell_length_b                    52.65008267136432 
_cell_length_c                    52.7415117892737 
_cell_angle_alpha                 89.890731413737 
_cell_angle_beta                  89.73666411590362 
_cell_angle_gamma                 89.98068597636501 
loop_ 
_atom_site_label 
_atom_site_type_symbol 
_atom_site_fract_x 
_atom_site_fract_y 
_atom_site_fract_z 
_atom_site_charge 
C1          C  0.05936565  0.66843938  0.93964613     0.03100
C2          C  0.04904495  0.68031713  0.91821161    -0.13100
C3          C  0.05950809  0.70308439  0.90896106     0.00600
C4          C  0.08091771  0.71346696  0.92087545    -0.11600
C5          C  0.09177284  0.70145096  0.94202760     0.03100
C6          C  0.08074776  0.67899148  0.95142310    -0.11000
H7          H  0.03181241  0.67282209  0.90985869     0.08700
H8          H  0.08857488  0.73140971  0.91422917     0.06200
H9          H  0.08798306  0.67042465  0.96864796     0.06000
C10         C  0.86892284  0.67005388  0.94031321     0.03100
C11         C  0.84843504  0.68208477  0.95248687    -0.13100
C12         C  0.83866660  0.70508779  0.94315102     0.00600
C13         C  0.84978393  0.71630727  0.92166890    -0.11600
C14         C  0.87111602  0.70519221  0.91005390     0.03100
C15         C  0.88008530  0.68173227  0.91903016    -0.11000
H16         H  0.84081147  0.67415973  0.96991111     0.08700
H17         H  0.84266738  0.73437338  0.91483331     0.06200
H18         H  0.89668935  0.67318976  0.91026023     0.06000
C19         C  0.86915977  0.67062220  0.13156076     0.03100
C20         C  0.84669108  0.68120589  0.12185050    -0.13100
C21         C  0.83529114  0.70238211  0.13344523     0.00600
C22         C  0.84655883  0.71298179  0.15506911    -0.11600
C23         C  0.86875523  0.70237003  0.16533175     0.03100
C24         C  0.87978640  0.68103278  0.15362224    -0.11000
H25         H  0.83879634  0.67378859  0.10442026     0.08700
H26         H  0.83839715  0.72987950  0.16354381     0.06200
H27         H  0.89723869  0.67313371  0.16112452     0.06000
C28         C  0.05817282  0.66748258  0.13120287     0.03100
C29         C  0.04534251  0.67989410  0.15109640    -0.13100
C30         C  0.05512622  0.70233614  0.16165608     0.00600
C31         C  0.07777032  0.71260384  0.15194380    -0.11600
C32         C  0.09030460  0.70098683  0.13153764     0.03100
C33         C  0.08079927  0.67818235  0.12166926    -0.11000
H34         H  0.02717316  0.67271698  0.15771175     0.08700
H35         H  0.08505916  0.73027567  0.15950657     0.06200
H36         H  0.09034774  0.66950079  0.10562112     0.06000
C37         C  0.86741558  0.37004570  0.13226322     0.03100
C38         C  0.87806874  0.35964970  0.15433275    -0.13100
C39         C  0.86848571  0.33714321  0.16498389     0.00600
C40         C  0.84718143  0.32552286  0.15405683    -0.11600
C41         C  0.83629378  0.33555975  0.13196779     0.03100
C42         C  0.84661489  0.35770582  0.12101952    -0.11000
H43         H  0.89464438  0.36853600  0.16265311     0.08700
H44         H  0.83968414  0.30812147  0.16215634     0.06200
H45         H  0.83905206  0.36474888  0.10326805     0.06000
C46         C  0.86632351  0.36983542  0.94134854     0.03100
C47         C  0.87923450  0.35845963  0.92094774    -0.13100
C48         C  0.87102571  0.33505271  0.91119598     0.00600
C49         C  0.84942451  0.32326066  0.92165213    -0.11600
C50         C  0.83632056  0.33450500  0.94196530     0.03100
C51         C  0.84476749  0.35782761  0.95157193    -0.11000
H52         H  0.89653547  0.36703426  0.91366696     0.08700
H53         H  0.84347866  0.30483856  0.91471522     0.06200
H54         H  0.83533753  0.36598983  0.96796700     0.06000
C55         C  0.05784476  0.37013838  0.94058562     0.03100
C56         C  0.07794926  0.35827627  0.95344238    -0.13100
C57         C  0.08852990  0.33554380  0.94425186     0.00600
C58         C  0.07937517  0.32518506  0.92155520    -0.11600
C59         C  0.05905054  0.33664640  0.90869569     0.03100
C60         C  0.04844303  0.35914796  0.91829913    -0.11000
H61         H  0.08444313  0.36600564  0.97131216     0.08700
H62         H  0.08727563  0.30752268  0.91451777     0.06200
H63         H  0.03205742  0.36750419  0.90907456     0.06000
C64         C  0.05876605  0.37319598  0.13365242     0.03100
C65         C  0.08049956  0.36133501  0.12364656    -0.13100
C66         C  0.09007367  0.33902358  0.13463225     0.00600
C67         C  0.07806027  0.32880776  0.15613355    -0.11600
C68         C  0.05603606  0.34021380  0.16605752     0.03100
C69         C  0.04665691  0.36251022  0.15486571    -0.11000
H70         H  0.08923152  0.36876458  0.10651354     0.08700
H71         H  0.08516366  0.31133918  0.16438788     0.06200
H72         H  0.02907627  0.37076553  0.16182184     0.06000
O73         O  0.01331162  0.56190129  0.08489229    -0.75300
O74         O  0.99183799  0.59145828  0.06156163    -0.54300
C75         C  0.00829023  0.58494063  0.07838842     0.78400
O76         O  0.01047213  0.47582213  0.98351813    -0.59900
O77         O  0.98846597  0.44688468  0.00719908    -0.53000
C78         C  0.00448916  0.45290199  0.98968928     0.70400
O79         O  0.01287025  0.56106250  0.98363118    -0.74500
O80         O  0.99053215  0.59059969  0.00579650    -0.55100
C81         C  0.00711642  0.58422255  0.98888589     0.76400
O82         O  0.01222838  0.47628147  0.08517172    -0.59600
O83         O  0.98976138  0.44683665  0.06289426    -0.52800
C84         C  0.00662459  0.45322801  0.07927726     0.73000
Zr85       Zr  0.00010842  0.51922881  0.07254251     2.54700
O86         O  0.04638728  0.51898642  0.07092279    -0.80200
O87         O  0.99969315  0.51853054  0.11870948    -0.93600
Zr88       Zr  0.99925209  0.51871574  0.99705864     2.64700
O89         O  0.04552204  0.51809168  0.99897532    -0.98600
O90         O  0.99817270  0.51908583  0.95093448    -0.80600
O91         O  0.00068826  0.54351073  0.03454838    -0.84000
O92         O  0.00017711  0.49448098  0.03497656    -2.18700
O93         O  0.91305381  0.47714056  0.08820248    -0.67400
O94         O  0.93466966  0.44763352  0.06487112    -0.52000
C95         C  0.91886138  0.45403675  0.08237943     0.71400
O96         O  0.91135323  0.56226027  0.98505602    -0.60300
O97         O  0.93461361  0.59134133  0.00710675    -0.52300
C98         C  0.91798655  0.58522065  0.99037794     0.73200
O99         O  0.90997901  0.47636468  0.98678981    -0.71700
O100        O  0.93281802  0.44715015  0.00910928    -0.50400
C101        C  0.91560705  0.45334135  0.99298914     0.74600
O102        O  0.91168940  0.56372224  0.08488889    -0.67000
O103        O  0.93506321  0.59250382  0.06228740    -0.54200
C104        C  0.91782540  0.58665727  0.07869101     0.72900
Zr105      Zr  0.92443178  0.52016774  0.07392242     2.77500
O106        O  0.87813832  0.51954423  0.07289388    -0.97800
O107        O  0.92474176  0.52194212  0.12006108    -0.78600
Zr108      Zr  0.92327908  0.51934933  0.99862485     2.70100
O109        O  0.87721542  0.51996258  0.00350744    -0.79800
O110        O  0.92144842  0.51828504  0.95251453    -0.98900
Zr111      Zr  0.96264241  0.56785704  0.03487132     2.21500
Zr112      Zr  0.96153734  0.47095961  0.03581108     2.11100
O113        O  0.92321271  0.49514889  0.03656510    -2.47600
O114        O  0.92387649  0.54445289  0.03594949    -0.79600
O115        O  0.96204791  0.49512798  0.07394535    -0.71800
O116        O  0.96152880  0.54337814  0.99695460    -2.32800
O117        O  0.96260362  0.54427390  0.07352259    -2.29000
O118        O  0.96105537  0.49457218  0.99733773    -0.73600
H119        H  0.01477810  0.48331388  0.03477603     0.78400
H120        H  0.96146940  0.55417003  0.98212924     0.79500
H121        H  0.90844201  0.48416986  0.03705147     0.81700
H122        H  0.96289196  0.55550327  0.08797932     0.79300
H123        H  0.97990294  0.52063614  0.94674170     0.42400
H124        H  0.93196501  0.50345720  0.94763444     0.41300
H125        H  0.87397622  0.53274434  0.01688763     0.41000
H126        H  0.87365369  0.50268893  0.06593000     0.38900
H127        H  0.93535505  0.53689244  0.12417972     0.42100
H128        H  0.98690140  0.53143835  0.12362367     0.36900
H129        H  0.05079597  0.53184892  0.05790573     0.43000
H130        H  0.04993936  0.50086025  0.00508377     0.39400
H131        H  0.87295738  0.51866245  0.09094682     0.44300
H132        H  0.01620686  0.52603354  0.12365146     0.43000
H133        H  0.05108424  0.51831814  0.98101426     0.43200
H134        H  0.90378244  0.51309313  0.94867024     0.43500
C135        C  0.61111164  0.92297769  0.13895156     0.03100
C136        C  0.62720158  0.93730139  0.15439695    -0.13100
C137        C  0.65150212  0.92820223  0.16044384     0.00600
C138        C  0.66020190  0.90568981  0.14913273    -0.11600
C139        C  0.64413831  0.89098059  0.13345739     0.03100
C140        C  0.61848539  0.89848390  0.13179066    -0.11000
H141        H  0.62130829  0.95601009  0.16065588     0.08700
H142        H  0.67973991  0.90046544  0.15232548     0.06200
H143        H  0.60462529  0.88655979  0.12267308     0.06000
C144        C  0.61784663  0.92914907  0.94517132     0.03100
C145        C  0.62797634  0.93958345  0.92277831    -0.13100
C146        C  0.65044342  0.92975757  0.91201395     0.00600
C147        C  0.66297369  0.90956990  0.92411082    -0.11600
C148        C  0.65311282  0.89907447  0.94652856     0.03100
C149        C  0.63024457  0.90853818  0.95667496    -0.11000
H150        H  0.61889211  0.95598879  0.91429212     0.08700
H151        H  0.68082476  0.90252963  0.91652669     0.06200
H152        H  0.62292840  0.90086113  0.97434378     0.06000
C153        C  0.61474578  0.11240171  0.94478891     0.03100
C154        C  0.62533510  0.10220585  0.92251815    -0.13100
C155        C  0.64671843  0.11352004  0.91100241     0.00600
C156        C  0.65728297  0.13542513  0.92184509    -0.11600
C157        C  0.64674004  0.14604275  0.94394101     0.03100
C158        C  0.62545721  0.13438720  0.95527623    -0.11000
H159        H  0.61751348  0.08488034  0.91470332     0.08700
H160        H  0.67411988  0.14386444  0.91341145     0.06200
H161        H  0.61795332  0.14170994  0.97298796     0.06000
C162        C  0.61300222  0.11410329  0.13620953     0.03100
C163        C  0.62592323  0.10368617  0.15716302    -0.13100
C164        C  0.64883991  0.11437910  0.16574457     0.00600
C165        C  0.65843739  0.13611271  0.15369265    -0.11600
C166        C  0.64599030  0.14669560  0.13272069     0.03100
C167        C  0.62342680  0.13548789  0.12395133    -0.11000
H168        H  0.61882537  0.08649076  0.16602092     0.08700
H169        H  0.67642668  0.14402346  0.15981054     0.06200
H170        H  0.61473907  0.14260778  0.10675792     0.06000
C171        C  0.31277501  0.11273061  0.94617478     0.03100
C172        C  0.30063842  0.13280627  0.95896693    -0.13100
C173        C  0.27799472  0.14344898  0.94950505     0.00600
C174        C  0.26788577  0.13418836  0.92673309    -0.11600
C175        C  0.27932446  0.11366487  0.91417632     0.03100
C176        C  0.30179176  0.10312172  0.92393905    -0.11000
H177        H  0.30828183  0.13948045  0.97680194     0.08700
H178        H  0.25047890  0.14225794  0.91929740     0.06200
H179        H  0.31029159  0.08681763  0.91467111     0.06000
C180        C  0.31296619  0.92381602  0.94631494     0.03100
C181        C  0.30241076  0.90094989  0.95519485    -0.13100
C182        C  0.28059262  0.89070474  0.94379328     0.00600
C183        C  0.26981251  0.90303100  0.92283488    -0.11600
C184        C  0.28002158  0.92596968  0.91386979     0.03100
C185        C  0.30185861  0.93599975  0.92540370    -0.11000
H186        H  0.31035764  0.89185860  0.97182383     0.08700
H187        H  0.25266427  0.89546995  0.91437825     0.06200
H188        H  0.30941391  0.95406053  0.91895983     0.06000
C189        C  0.31085350  0.92444956  0.13409681     0.03100
C190        C  0.29924758  0.93506137  0.15561792    -0.13100
C191        C  0.27611697  0.92550970  0.16491092     0.00600
C192        C  0.26497463  0.90439155  0.15321382    -0.11600
C193        C  0.27640607  0.89335027  0.13179703     0.03100
C194        C  0.29921198  0.90364963  0.12217121    -0.11000
H195        H  0.30762277  0.95162199  0.16446565     0.08700
H196        H  0.24693136  0.89719231  0.16017715     0.06200
H197        H  0.30735166  0.89610182  0.10483988     0.06000
C198        C  0.31214216  0.11462596  0.13434620     0.03100
C199        C  0.30209865  0.10450047  0.15694091    -0.13100
C200        C  0.28069499  0.11550889  0.16873685     0.00600
C201        C  0.26942078  0.13701858  0.15768881    -0.11600
C202        C  0.27871330  0.14696201  0.13471586     0.03100
C203        C  0.30059435  0.13619415  0.12364889    -0.11000
H204        H  0.31014145  0.08717121  0.16460025     0.08700
H205        H  0.25266429  0.14532822  0.16637824     0.06200
H206        H  0.30791080  0.14384644  0.10597776     0.06000
O207        O  0.50645130  0.06754639  0.09197344    -0.75300
O208        O  0.53598911  0.04476953  0.06981280    -0.54300
C209        C  0.52960298  0.06120987  0.08673522     0.78400
O210        O  0.41926396  0.96833162  0.09107455    -0.59900
O211        O  0.39058058  0.99144740  0.06836520    -0.53000
C212        C  0.39634597  0.97486811  0.08534690     0.70400
O213        O  0.50489367  0.96655098  0.09089324    -0.74500
O214        O  0.53462151  0.98784254  0.06777641    -0.55100
C215        C  0.52808159  0.97111897  0.08448583     0.76400
O216        O  0.42002193  0.06928417  0.09025138    -0.59600
O217        O  0.39094438  0.04717909  0.06718030    -0.52800
C218        C  0.39696201  0.06358665  0.08420305     0.73000
Zr219      Zr  0.46331011  0.05653969  0.07793733     2.54700
O220        O  0.46260238  0.05870706  0.12402065    -0.80200
O221        O  0.46368707  0.10269666  0.07479533    -0.93600
Zr222      Zr  0.46251888  0.98063983  0.07838738     2.64700
O223        O  0.46369461  0.98297302  0.12447658    -0.98600
O224        O  0.46073600  0.93444014  0.07828473    -0.80600
O225        O  0.48745402  0.01833482  0.07908733    -0.84000
O226        O  0.43851199  0.01878897  0.07876593    -2.18700
O227        O  0.42096453  0.06815076  0.98878631    -0.67400
O228        O  0.39163737  0.04561083  0.01153674    -0.52000
C229        C  0.39785933  0.06185337  0.99437880     0.71400
O230        O  0.50756919  0.96931763  0.98926451    -0.60300
O231        O  0.53636559  0.99129827  0.01278468    -0.52300
C232        C  0.53058512  0.97510695  0.99552952     0.73200
O233        O  0.42066582  0.96765642  0.99053941    -0.71700
O234        O  0.39131397  0.99010249  0.01330366    -0.50400
C235        C  0.39755634  0.97353856  0.99649419     0.74600
O236        O  0.50741086  0.06773323  0.98963544    -0.67000
O237        O  0.53631379  0.04588482  0.01331468    -0.54200
C238        C  0.53039291  0.06230996  0.99619034     0.72900
Zr239      Zr  0.46405240  0.05601477  0.00235519     2.77500
O240        O  0.46584239  0.05518169  0.95621279    -0.97800
O241        O  0.46378860  0.10221342  0.00334886    -0.78600
Zr242      Zr  0.46393754  0.98042056  0.00261189     2.70100
O243        O  0.46323060  0.98187213  0.95649753    -0.79800
O244        O  0.46557955  0.93421966  0.00265940    -0.98900
Zr245      Zr  0.51200185  0.01800411  0.04103953     2.21500
Zr246      Zr  0.41508761  0.01857903  0.04022235     2.11100
O247        O  0.43943514  0.01825992  0.00191199    -2.47600
O248        O  0.48861200  0.01813493  0.00245179    -0.79600
O249        O  0.43907700  0.05693691  0.04001154    -0.71800
O250        O  0.48761660  0.97979716  0.04077173    -2.32800
O251        O  0.48828610  0.05667301  0.04035344    -2.29000
O252        O  0.43874367  0.98001248  0.04025090    -0.73600
H253        H  0.42726721  0.01897935  0.09337088     0.78400
H254        H  0.49847709  0.96500898  0.04073027     0.79500
H255        H  0.42853380  0.01813744  0.98721149     0.81700
H256        H  0.49946997  0.07126767  0.04037445     0.79300
H257        H  0.47118013  0.92934955  0.06347529     0.42400
H258        H  0.45223103  0.92897560  0.01489106     0.41300
H259        H  0.47343351  0.99704606  0.95202512     0.41000
H260        H  0.45268711  0.04273514  0.95120427     0.38900
H261        H  0.45651558  0.10650504  0.02014923     0.42100
H262        H  0.48179529  0.10733253  0.07245267     0.36900
H263        H  0.45843286  0.04121588  0.12955880     0.43000
H264        H  0.44765070  0.99156174  0.12935180     0.39400
H265        H  0.45890903  0.07183500  0.95088479     0.44300
H266        H  0.45942155  0.10858915  0.09211847     0.43000
H267        H  0.46143218  0.96518871  0.13019225     0.43200
H268        H  0.45883365  0.92925579  0.98588564     0.43500
C269        C  0.06365232  0.92673645  0.68686762     0.03100
C270        C  0.05213724  0.90527988  0.69791636    -0.13100
C271        C  0.06227569  0.89422121  0.71994173     0.00600
C272        C  0.08440403  0.90441125  0.73058857    -0.11600
C273        C  0.09586974  0.92605245  0.72000544     0.03100
C274        C  0.08585960  0.93665306  0.69771757    -0.11000
H275        H  0.03441647  0.89814806  0.69029237     0.08700
H276        H  0.09177092  0.89645098  0.74804457     0.06200
H277        H  0.09443819  0.95359011  0.68969018     0.06000
C278        C  0.86791669  0.92449691  0.68607282     0.03100
C279        C  0.84625501  0.93564112  0.69701669    -0.13100
C280        C  0.83586225  0.92625972  0.71973759     0.00600
C281        C  0.84677796  0.90460269  0.73099324    -0.11600
C282        C  0.86856536  0.89320104  0.72031427     0.03100
C283        C  0.87904924  0.90338585  0.69792391    -0.11000
H284        H  0.83820030  0.95253980  0.68844330     0.08700
H285        H  0.83904648  0.89732367  0.74864215     0.06200
H286        H  0.89668444  0.89571704  0.69046160     0.06000
C287        C  0.87257580  0.11468583  0.68861306     0.03100
C288        C  0.88327912  0.13622202  0.69992839    -0.13100
C289        C  0.87310470  0.14624983  0.72244464     0.00600
C290        C  0.85168910  0.13461908  0.73354577    -0.11600
C291        C  0.84098559  0.11281606  0.72254472     0.03100
C292        C  0.85139313  0.10310891  0.69998206    -0.11000
H293        H  0.90008000  0.14478851  0.69153196     0.08700
H294        H  0.84370751  0.14215988  0.75094756     0.06200
H295        H  0.84361783  0.08591638  0.69181686     0.06000
C296        C  0.05683755  0.11045870  0.69113560     0.03100
C297        C  0.07815908  0.09972477  0.70282702    -0.13100
C298        C  0.08829281  0.11049980  0.72487311     0.00600
C299        C  0.07729168  0.13275154  0.73487836    -0.11600
C300        C  0.05560738  0.14358988  0.72346663     0.03100
C301        C  0.04576422  0.13234278  0.70141174    -0.11000
H302        H  0.08639654  0.08245943  0.69519004     0.08700
H303        H  0.08526527  0.14119784  0.75177420     0.06200
H304        H  0.02879315  0.14005353  0.69269011     0.06000
C305        C  0.87032428  0.11670099  0.38890476     0.03100
C306        C  0.88075626  0.13899224  0.37852522    -0.13100
C307        C  0.87102306  0.14936063  0.35598838     0.00600
C308        C  0.85049393  0.13739376  0.34406041    -0.11600
C309        C  0.83980074  0.11523150  0.35431419     0.03100
C310        C  0.84959183  0.10513356  0.37692480    -0.11000
H311        H  0.89745657  0.14733425  0.38713901     0.08700
H312        H  0.84361119  0.14464849  0.32610219     0.06200
H313        H  0.84225431  0.08730579  0.38421582     0.06000
C314        C  0.87119834  0.92364888  0.38896610     0.03100
C315        C  0.88174055  0.90131875  0.37883911    -0.13100
C316        C  0.87079690  0.88946912  0.35768760     0.00600
C317        C  0.84942648  0.90053769  0.34627490    -0.11600
C318        C  0.83886388  0.92297491  0.35594377     0.03100
C319        C  0.84915855  0.93384952  0.37790263    -0.11000
H320        H  0.89933630  0.89393841  0.38654599     0.08700
H321        H  0.84185191  0.89248818  0.32897887     0.06200
H322        H  0.84112906  0.95132386  0.38523339     0.06000
C323        C  0.05469468  0.92378874  0.38592775     0.03100
C324        C  0.07555198  0.93581805  0.37434051    -0.13100
C325        C  0.08641865  0.92582590  0.35217519     0.00600
C326        C  0.07645427  0.90362450  0.34164238    -0.11600
C327        C  0.05597674  0.89118412  0.35330141     0.03100
C328        C  0.04537235  0.90110581  0.37564937    -0.11000
H329        H  0.08249967  0.95367514  0.38181008     0.08700
H330        H  0.08411288  0.89646824  0.32392050     0.06200
H331        H  0.02904751  0.89189755  0.38427857     0.06000
C332        C  0.05760882  0.11862485  0.38717472     0.03100
C333        C  0.04704217  0.14045769  0.37597950    -0.13100
C334        C  0.05751399  0.15065819  0.35353782     0.00600
C335        C  0.07858289  0.13878157  0.34224897    -0.11600
C336        C  0.08926164  0.11695031  0.35312637     0.03100
C337        C  0.07871259  0.10706690  0.37554218    -0.11000
H338        H  0.02995357  0.14877032  0.38398576     0.08700
H339        H  0.08615850  0.14606865  0.32452226     0.06200
H340        H  0.08635895  0.08966399  0.38344349     0.06000
O341        O  0.01800897  0.97017576  0.57940048    -0.75300
O342        O  0.99492552  0.99183348  0.60898650    -0.54300
C343        C  0.01215408  0.97569865  0.60253838     0.78400
O344        O  0.01512491  0.07209049  0.49446319    -0.59900
O345        O  0.99217432  0.04947378  0.46569856    -0.53000
C346        C  0.00901321  0.06615351  0.47156396     0.70400
O347        O  0.01655775  0.06945615  0.58047597    -0.74500
O348        O  0.99435954  0.04596143  0.60925729    -0.55100
C349        C  0.01097198  0.06289853  0.60339982     0.76400
O350        O  0.01452439  0.96965946  0.49348199    -0.59600
O351        O  0.99148752  0.99259010  0.46490446    -0.52800
C352        C  0.00803407  0.97560615  0.47071372     0.73000
Zr353      Zr  0.00389323  0.98248329  0.53672880     2.54700
O354        O  0.05016325  0.98398539  0.53534490    -0.80200
O355        O  0.00359027  0.93630841  0.53480995    -0.93600
Zr356      Zr  0.00321307  0.05824294  0.53737987     2.64700
O357        O  0.04953637  0.05797336  0.53689259    -0.98600
O358        O  0.00091400  0.10441244  0.53817413    -0.80600
O359        O  0.00432049  0.02003633  0.56140458    -0.84000
O360        O  0.00389321  0.02064815  0.51255469    -2.18700
O361        O  0.91681337  0.96834583  0.49469068    -0.67400
O362        O  0.93809916  0.99250379  0.46558028    -0.52000
C363        C  0.92249574  0.97470413  0.47172195     0.71400
O364        O  0.91616332  0.06986769  0.58201294    -0.60300
O365        O  0.93940856  0.04701305  0.61043472    -0.52300
C366        C  0.92290594  0.06410181  0.60479490     0.73200
O367        O  0.91400783  0.07057344  0.49579543    -0.71700
O368        O  0.93627474  0.04807291  0.46627034    -0.50400
C369        C  0.91943002  0.06461738  0.47266399     0.74600
O370        O  0.91484450  0.96943374  0.58058481    -0.67000
O371        O  0.93780474  0.99166931  0.60963533    -0.54200
C372        C  0.92055109  0.97551354  0.60353285     0.72900
Zr373      Zr  0.92790611  0.98186296  0.53771656     2.77500
O374        O  0.88166858  0.98458407  0.53787679    -0.97800
O375        O  0.92756166  0.93564912  0.53827738    -0.78600
Zr376      Zr  0.92726944  0.05754823  0.53856433     2.70100
O377        O  0.88104064  0.05602940  0.54091492    -0.79800
O378        O  0.92685342  0.10377116  0.53928664    -0.98900
Zr379      Zr  0.96610597  0.01903318  0.58564362     2.21500
Zr380      Zr  0.96499379  0.02083061  0.48950580     2.11100
O381        O  0.92668029  0.02001597  0.51371006    -2.47600
O382        O  0.92733941  0.01933544  0.56261403    -0.79600
O383        O  0.96567335  0.98225267  0.51297963    -0.71800
O384        O  0.96554611  0.05785713  0.56230027    -2.32800
O385        O  0.96615004  0.98083914  0.56158974    -2.29000
O386        O  0.96495170  0.05897917  0.51355438    -0.73600
H387        H  0.01830103  0.02083229  0.50128141     0.78400
H388        H  0.96566305  0.07231576  0.57354325     0.79500
H389        H  0.91204066  0.01996322  0.50284222     0.81700
H390        H  0.96635807  0.96609945  0.57247443     0.79300
H391        H  0.98444587  0.10823153  0.54650704     0.42400
H392        H  0.93647608  0.10892794  0.52393901     0.41300
H393        H  0.87622698  0.04135001  0.53027735     0.41000
H394        H  0.87729082  0.99309496  0.52172474     0.38900
H395        H  0.94339200  0.93074938  0.52929713     0.42100
H396        H  0.99205931  0.93092890  0.54869185     0.36900
H397        H  0.05461059  0.99984033  0.54435949     0.43000
H398        H  0.05425626  0.04903469  0.52105543     0.39400
H399        H  0.87590793  0.96683133  0.53562823     0.44300
H400        H  0.02078252  0.93116974  0.54042640     0.43000
H401        H  0.05435256  0.07589795  0.53380056     0.43200
H402        H  0.90899527  0.10839530  0.53556525     0.43500
C403        C  0.93853801  0.29809130  0.23756566    -0.10900
C404        C  0.96140970  0.30853594  0.22899064    -0.04800
C405        C  0.98482222  0.29962881  0.23762012    -0.10900
C406        C  0.98563127  0.28039030  0.25629299     0.10100
C407        C  0.96251717  0.27003669  0.26571826    -0.02700
C408        C  0.93884860  0.27874243  0.25615306     0.09900
C409        C  0.91621233  0.26769573  0.26515262    -0.12700
C410        C  0.91677333  0.24827383  0.28314820    -0.12700
C411        C  0.94000099  0.23913548  0.29259114     0.09900
C412        C  0.96310894  0.25013358  0.28386443    -0.02700
C413        C  0.00888179  0.27098845  0.26544018    -0.12800
C414        C  0.00947212  0.25134521  0.28319826    -0.12800
C415        C  0.98683137  0.24050919  0.29242347     0.10100
C416        C  0.98716768  0.21964780  0.30931779    -0.10900
C417        C  0.96430593  0.20943761  0.31811714    -0.04800
C418        C  0.94088161  0.21861991  0.30986836    -0.10900
H419        H  0.89788002  0.27400881  0.25830157     0.07300
H420        H  0.89886064  0.24022046  0.28940291     0.07300
H421        H  0.02680987  0.27869664  0.25879656     0.07500
H422        H  0.02781939  0.24451164  0.28949603     0.07500
H423        H  0.96103081  0.32265729  0.21396446     0.03900
H424        H  0.96476301  0.19318802  0.33081848     0.03900
C425        C  0.23587455  0.04283029  0.23609574    -0.10900
C426        C  0.24490220  0.01951849  0.22714480    -0.04800
C427        C  0.23431748  0.99651050  0.23521634    -0.10900
C428        C  0.21463219  0.99652911  0.25350211     0.10100
C429        C  0.20557470  0.02000474  0.26317213    -0.02700
C430        C  0.21629326  0.04325682  0.25455952     0.09900
C431        C  0.20674425  0.06627904  0.26412276    -0.12700
C432        C  0.18645985  0.06654288  0.28123285    -0.12700
C433        C  0.17507292  0.04378771  0.28935729     0.09900
C434        C  0.18491812  0.02027858  0.28054930    -0.02700
C435        C  0.20348977  0.97375598  0.26197942    -0.12800
C436        C  0.18334957  0.97402113  0.27924476    -0.12800
C437        C  0.17355920  0.99707896  0.28842444     0.10100
C438        C  0.15218676  0.99770620  0.30472306    -0.10900
C439        C  0.14258704  0.02092771  0.31299090    -0.04800
C440        C  0.15358261  0.04383012  0.30551862    -0.10900
H441        H  0.21473199  0.08429712  0.25818612     0.07300
H442        H  0.17948183  0.08475078  0.28777010     0.07300
H443        H  0.21020970  0.95554335  0.25518785     0.07500
H444        H  0.17518987  0.95602581  0.28502078     0.07500
H445        H  0.25927307  0.01933287  0.21230171     0.03900
H446        H  0.12594658  0.02119668  0.32526244     0.03900
C447        C  0.15530810  0.28989243  0.01681244    -0.10900
C448        C  0.14606408  0.29930673  0.03977993    -0.04800
C449        C  0.15505541  0.29037547  0.06297648    -0.10900
C450        C  0.17463173  0.27201762  0.06355664     0.10100
C451        C  0.18429977  0.26219680  0.04039093    -0.02700
C452        C  0.17453851  0.27105268  0.01687272     0.09900
C453        C  0.18420294  0.26082488  0.99419784    -0.12700
C454        C  0.20295954  0.24203083  0.99457214    -0.12700
C455        C  0.21264503  0.23282168  0.01763506     0.09900
C456        C  0.20331401  0.24305087  0.04078320    -0.02700
C457        C  0.18426263  0.26278568  0.08662838    -0.12800
C458        C  0.20296929  0.24401660  0.08701459    -0.12800
C459        C  0.21264139  0.23383381  0.06434786     0.10100
C460        C  0.23147114  0.21466738  0.06450643    -0.10900
C461        C  0.24067473  0.20511863  0.04160261    -0.04800
C462        C  0.23149807  0.21366641  0.01831955    -0.10900
H463        H  0.17731271  0.26733091  0.97599129     0.07300
H464        H  0.20987326  0.23475392  0.97663174     0.07300
H465        H  0.17730786  0.26998231  0.10458580     0.07500
H466        H  0.20982490  0.23750985  0.10523370     0.07500
H467        H  0.13078649  0.31318894  0.03961283     0.03900
H468        H  0.25475682  0.19002824  0.04192136     0.03900
C469        C  0.70437187  0.04313225  0.22563684    -0.10900
C470        C  0.69594194  0.02013664  0.21568809    -0.04800
C471        C  0.70536567  0.99689960  0.22426731    -0.10900
C472        C  0.72387605  0.99633015  0.24358997     0.10100
C473        C  0.73251495  0.01956139  0.25412421    -0.02700
C474        C  0.72271577  0.04309019  0.24515355     0.09900
C475        C  0.73178303  0.06584715  0.25560749    -0.12700
C476        C  0.75034041  0.06558043  0.27440717    -0.12700
C477        C  0.76034968  0.04253740  0.28346359     0.09900
C478        C  0.75120122  0.01928373  0.27344139    -0.02700
C479        C  0.73376794  0.97328160  0.25275982    -0.12800
C480        C  0.75194029  0.97300699  0.27196092    -0.12800
C481        C  0.76100920  0.99578084  0.28242356     0.10100
C482        C  0.78001717  0.99583052  0.30131951    -0.10900
C483        C  0.78903691  0.01886760  0.31068679    -0.04800
C484        C  0.77970081  0.04206111  0.30194231    -0.10900
H485        H  0.72471636  0.08404853  0.24914023     0.07300
H486        H  0.75691930  0.08360573  0.28172978     0.07300
H487        H  0.72743932  0.95527942  0.24516336     0.07500
H488        H  0.75905445  0.95481177  0.27839642     0.07500
H489        H  0.68188896  0.02033425  0.20066314     0.03900
H490        H  0.80395945  0.01875234  0.32485193     0.03900
C491        C  0.98567866  0.74660782  0.23272472    -0.10900
C492        C  0.96227204  0.73814782  0.22367837    -0.04800
C493        C  0.93931972  0.74676304  0.23390910    -0.10900
C494        C  0.93952967  0.76360992  0.25472575     0.10100
C495        C  0.96315135  0.77284705  0.26384488    -0.02700
C496        C  0.98635710  0.76444273  0.25272273     0.09900
C497        C  0.00947223  0.77428880  0.26165454    -0.12700
C498        C  0.00980703  0.79258359  0.28074435    -0.12700
C499        C  0.98703696  0.80156854  0.29156034     0.09900
C500        C  0.96350751  0.79132269  0.28337966    -0.02700
C501        C  0.91681569  0.77203200  0.26609184    -0.12800
C502        C  0.91718219  0.79011812  0.28536694    -0.12800
C503        C  0.94026685  0.80044164  0.29381556     0.10100
C504        C  0.94078887  0.82035948  0.31175179    -0.10900
C505        C  0.96406633  0.83004339  0.31972250    -0.04800
C506        C  0.98700959  0.82122184  0.30973187    -0.10900
H507        H  0.02745845  0.76811172  0.25370377     0.07300
H508        H  0.02804041  0.79993574  0.28675063     0.07300
H509        H  0.89855692  0.76502273  0.25977345     0.07500
H510        H  0.89920258  0.79643620  0.29322357     0.07500
H511        H  0.96189831  0.72523257  0.20765864     0.03900
H512        H  0.96428762  0.84573624  0.33305795     0.03900
C513        C  0.23588177  0.99752614  0.84515608    -0.10900
C514        C  0.24411375  0.02085354  0.85455611    -0.04800
C515        C  0.23461189  0.04379546  0.84524708    -0.10900
C516        C  0.21687766  0.04365396  0.82516021     0.10100
C517        C  0.20870386  0.02006481  0.81503451    -0.02700
C518        C  0.21803711  0.99688303  0.82524440     0.09900
C519        C  0.20926081  0.97374467  0.81537493    -0.12700
C520        C  0.19171935  0.97331784  0.79566824    -0.12700
C521        C  0.18224673  0.99601577  0.78529519     0.09900
C522        C  0.19063057  0.01962307  0.79514911    -0.02700
C523        C  0.20660362  0.06631514  0.81545274    -0.12800
C524        C  0.18844938  0.06584995  0.79622459    -0.12800
C525        C  0.18028519  0.04273386  0.78577553     0.10100
C526        C  0.16185333  0.04198858  0.76632786    -0.10900
C527        C  0.15472091  0.01864632  0.75608080    -0.04800
C528        C  0.16432194  0.99577434  0.76548057    -0.10900
H529        H  0.21603494  0.95577572  0.82274070     0.07300
H530        H  0.18564998  0.95502834  0.78855501     0.07300
H531        H  0.21238955  0.08457544  0.82286350     0.07500
H532        H  0.18096943  0.08376552  0.78943065     0.07500
H533        H  0.25740418  0.02113472  0.87024908     0.03900
H534        H  0.14005180  0.01817147  0.74166326     0.03900
C535        C  0.94293909  0.29162247  0.84174528    -0.10900
C536        C  0.96638593  0.29966760  0.85098024    -0.04800
C537        C  0.98923143  0.29073854  0.84085744    -0.10900
C538        C  0.98892914  0.27376403  0.82016245     0.10100
C539        C  0.96521909  0.26555181  0.81033269    -0.02700
C540        C  0.94209382  0.27431107  0.82131399     0.09900
C541        C  0.91885459  0.26540171  0.81176206    -0.12700
C542        C  0.91828480  0.24815282  0.79175306    -0.12700
C543        C  0.94093895  0.23910525  0.78076193     0.09900
C544        C  0.96463601  0.24789130  0.79006995    -0.02700
C545        C  0.01157583  0.26427190  0.80957162    -0.12800
C546        C  0.01099075  0.24672022  0.78982270    -0.12800
C547        C  0.98774654  0.23818495  0.77991989     0.10100
C548        C  0.98694121  0.21993750  0.76030489    -0.10900
C549        C  0.96346308  0.21224902  0.75072961    -0.04800
C550        C  0.94058425  0.22110640  0.76096398    -0.10900
H551        H  0.90092905  0.27179620  0.81967713     0.07300
H552        H  0.89992834  0.24191443  0.78493062     0.07300
H553        H  0.02992519  0.27020526  0.81667188     0.07500
H554        H  0.02892658  0.23989422  0.78230807     0.07500
H555        H  0.96686332  0.31244019  0.86711445     0.03900
H556        H  0.96294828  0.19743828  0.73644330     0.03900
C557        C  0.15927825  0.74618905  0.01395196    -0.10900
C558        C  0.14941354  0.73745618  0.03694264    -0.04800
C559        C  0.15787609  0.74695455  0.06007685    -0.10900
C560        C  0.17733886  0.76545425  0.06054328     0.10100
C561        C  0.18800563  0.77415242  0.03731970    -0.02700
C562        C  0.17919385  0.76423690  0.01389944     0.09900
C563        C  0.18973882  0.77336224  0.99112016    -0.12700
C564        C  0.20805718  0.79250911  0.99125156    -0.12700
C565        C  0.21636802  0.80320642  0.01416530     0.09900
C566        C  0.20651036  0.79376630  0.03745031    -0.02700
C567        C  0.18562933  0.77618210  0.08345135    -0.12800
C568        C  0.20375904  0.79551700  0.08357237    -0.12800
C569        C  0.21420677  0.80475390  0.06079130     0.10100
C570        C  0.23151031  0.82532160  0.06055367    -0.10900
C571        C  0.24107670  0.83427234  0.03751461    -0.04800
C572        C  0.23354167  0.82382658  0.01445675    -0.10900
H573        H  0.18356306  0.76600585  0.97300549     0.07300
H574        H  0.21535779  0.79921224  0.97321395     0.07300
H575        H  0.17782715  0.76995193  0.10144987     0.07500
H576        H  0.20925357  0.80349116  0.10164530     0.07500
H577        H  0.13380367  0.72395659  0.03679275     0.03900
H578        H  0.25392584  0.85041583  0.03746812     0.03900
C579        C  0.77008428  0.28900361  0.01519714    -0.10900
C580        C  0.77931878  0.29752288  0.03846275    -0.04800
C581        C  0.76949175  0.28856445  0.06144032    -0.10900
C582        C  0.74909340  0.27105533  0.06138002     0.10100
C583        C  0.73946113  0.26217496  0.03787228    -0.02700
C584        C  0.74989147  0.27127158  0.01466688     0.09900
C585        C  0.74054498  0.26170510  0.99164932    -0.12700
C586        C  0.72162985  0.24313032  0.99136648    -0.12700
C587        C  0.71141701  0.23350030  0.01408649     0.09900
C588        C  0.72017476  0.24330007  0.03757714    -0.02700
C589        C  0.73874354  0.26152981  0.08410164    -0.12800
C590        C  0.71970992  0.24307326  0.08381045    -0.12800
C591        C  0.71042351  0.23349382  0.06078987     0.10100
C592        C  0.69220223  0.21374434  0.06025461    -0.10900
C593        C  0.68351618  0.20467565  0.03705853    -0.04800
C594        C  0.69296096  0.21396105  0.01409548    -0.10900
H595        H  0.74804300  0.26830789  0.97365686     0.07300
H596        H  0.71521700  0.23614803  0.97318842     0.07300
H597        H  0.74558229  0.26804869  0.10229575     0.07500
H598        H  0.71254718  0.23605524  0.10178445     0.07500
H599        H  0.79529344  0.31058137  0.03868649     0.03900
H600        H  0.66989540  0.18917437  0.03688167     0.03900
C601        C  0.98887233  0.75267444  0.84344847    -0.10900
C602        C  0.96570391  0.74291879  0.85196584    -0.04800
C603        C  0.94259345  0.75156210  0.84237394    -0.10900
C604        C  0.94237160  0.77040921  0.82327521     0.10100
C605        C  0.96579536  0.78026759  0.81401656    -0.02700
C606        C  0.98920173  0.77126998  0.82401931     0.09900
C607        C  0.01212851  0.78156537  0.81484577    -0.12700
C608        C  0.01210682  0.80070739  0.79646957    -0.12700
C609        C  0.98915074  0.81024535  0.78670176     0.09900
C610        C  0.96576468  0.79977717  0.79537562    -0.02700
C611        C  0.91942521  0.77976231  0.81339283    -0.12800
C612        C  0.91939231  0.79887595  0.79505713    -0.12800
C613        C  0.94230427  0.80934382  0.78604262     0.10100
C614        C  0.94242830  0.82969031  0.76848413    -0.10900
C615        C  0.96557024  0.83972705  0.76013295    -0.04800
C616        C  0.98880370  0.83047431  0.76897902    -0.10900
H617        H  0.03025331  0.77502891  0.82202760     0.07300
H618        H  0.03023203  0.80824370  0.79018216     0.07300
H619        H  0.90129243  0.77242603  0.81989893     0.07500
H620        H  0.90122876  0.80564469  0.78819599     0.07500
H621        H  0.96561483  0.72898905  0.86717892     0.03900
H622        H  0.96548585  0.85554329  0.74689806     0.03900
C623        C  0.69173160  0.04506904  0.83985097    -0.10900
C624        C  0.68282921  0.02187882  0.84912495    -0.04800
C625        C  0.69130961  0.99879552  0.83928657    -0.10900
C626        C  0.70837403  0.99855916  0.81853420     0.10100
C627        C  0.71777990  0.02192795  0.80885226    -0.02700
C628        C  0.70953288  0.04533421  0.81960113     0.09900
C629        C  0.71968348  0.06817232  0.81019576    -0.12700
C630        C  0.73804650  0.06805819  0.79098401    -0.12700
C631        C  0.74678133  0.04510435  0.78045565     0.09900
C632        C  0.73638125  0.02181528  0.78923813    -0.02700
C633        C  0.71706135  0.97561643  0.80799537    -0.12800
C634        C  0.73533433  0.97551801  0.78874866    -0.12800
C635        C  0.74549833  0.99835503  0.77936851     0.10100
C636        C  0.76488410  0.99841445  0.76066726    -0.10900
C637        C  0.77440961  0.02154408  0.75180558    -0.04800
C638        C  0.76603679  0.04471501  0.76168220    -0.10900
H639        H  0.71368707  0.08628344  0.81786918     0.07300
H640        H  0.74547611  0.08612174  0.78447869     0.07300
H641        H  0.71001516  0.95753454  0.81486309     0.07500
H642        H  0.74163020  0.95737751  0.78138650     0.07500
H643        H  0.66999207  0.02176033  0.86531583     0.03900
H644        H  0.78991920  0.02146007  0.73814001     0.03900
C645        C  0.76796127  0.74748312  0.06241057    -0.10900
C646        C  0.78007816  0.74060416  0.03981858    -0.04800
C647        C  0.77277426  0.75087223  0.01654615    -0.10900
C648        C  0.75302238  0.76904278  0.01562995     0.10100
C649        C  0.74047627  0.77617763  0.03841874    -0.02700
C650        C  0.74715532  0.76448603  0.06173463     0.09900
C651        C  0.73330661  0.77058707  0.08372605    -0.12700
C652        C  0.71428022  0.78907597  0.08313744    -0.12700
C653        C  0.70977660  0.80330264  0.06101939     0.09900
C654        C  0.72210136  0.79590391  0.03809486    -0.02700
C655        C  0.74610006  0.78082296  0.99273148    -0.12800
C656        C  0.72817913  0.80033273  0.99240386    -0.12800
C657        C  0.71651726  0.80855384  0.01493107     0.10100
C658        C  0.69983999  0.82950178  0.01514722    -0.10900
C659        C  0.68975060  0.83788052  0.03805143    -0.04800
C660        C  0.69365103  0.82493017  0.06097132    -0.10900
H661        H  0.73721872  0.76115562  0.10155183     0.07300
H662        H  0.70383236  0.79284158  0.10044055     0.07300
H663        H  0.75505612  0.77553164  0.97498553     0.07500
H664        H  0.72395223  0.80936811  0.97444853     0.07500
H665        H  0.79609177  0.72759980  0.04045796     0.03900
H666        H  0.67805171  0.85487531  0.03781651     0.03900
C667        C  0.04429553  0.17152276  0.34004374    -0.06200
C668        C  0.03446873  0.16647398  0.31587360    -0.17300
C669        C  0.01772904  0.18336585  0.30409868     0.11000
C670        C  0.01053708  0.20590501  0.31672754    -0.06100
C671        C  0.02184469  0.21190969  0.33999385    -0.17300
C672        C  0.03890550  0.19511186  0.35161250     0.11100
S673        S  0.00408610  0.17368235  0.27428738    -0.32300
S674        S  0.05254174  0.20440707  0.38148241    -0.32300
H675        H  0.07495930  0.19005366  0.37877570     0.29100
H676        H  0.99800654  0.19807720  0.26543385     0.29100
H677        H  0.03862781  0.14849729  0.30676242     0.19600
H678        H  0.01631485  0.22914733  0.34977401     0.19700
C679        C  0.14090856  0.06714427  0.31455007    -0.06200
C680        C  0.14719942  0.07622102  0.33867177    -0.17300
C681        C  0.13162274  0.09379064  0.35117081     0.11000
C682        C  0.10908072  0.10237765  0.33935381    -0.06100
C683        C  0.10363838  0.09427474  0.31460276    -0.17300
C684        C  0.11920484  0.07671936  0.30215752     0.11100
S685        S  0.14104941  0.10364464  0.38248401    -0.32300
S686        S  0.10886882  0.06517559  0.27170388    -0.32300
H687        H  0.13320236  0.05942356  0.26225184     0.29100
H688        H  0.12909070  0.12751817  0.38155300     0.29100
H689        H  0.16365370  0.06855202  0.34835174     0.19600
H690        H  0.08627066  0.10046420  0.30547430     0.19700
C691        C  0.04530655  0.10599193  0.40937667    -0.06200
C692        C  0.03952703  0.08002333  0.40742622    -0.17300
C693        C  0.02884216  0.06651374  0.42766133     0.11000
C694        C  0.02229124  0.07932327  0.45033819    -0.06100
C695        C  0.02804854  0.10533774  0.45240171    -0.17300
C696        C  0.03976563  0.11867379  0.43240013     0.11100
S697        S  0.02559743  0.03263362  0.42373549    -0.32300
S698        S  0.04786757  0.15149076  0.43783451    -0.32300
H699        H  0.07019510  0.15127892  0.42304762     0.29100
H700        H  0.03328609  0.02669563  0.44857935     0.29100
H701        H  0.04386507  0.06994990  0.39003101     0.19600
H702        H  0.02344963  0.11536626  0.46975261     0.19700
C703        C  0.10591444  0.94042112  0.33823992    -0.06200
C704        C  0.09952113  0.95020334  0.31435097    -0.17300
C705        C  0.11554835  0.96725271  0.30176966     0.11000
C706        C  0.13844902  0.97483820  0.31338321    -0.06100
C707        C  0.14549324  0.96404430  0.33663578    -0.17300
C708        C  0.12958558  0.94669805  0.34905709     0.11100
S709        S  0.10469126  0.98020953  0.27201998    -0.32300
S710        S  0.14011052  0.93377353  0.37889621    -0.32300
H711        H  0.12721711  0.91050027  0.37650775     0.29100
H712        H  0.12876027  0.98670745  0.26236889     0.29100
H713        H  0.08134757  0.94543121  0.30597739     0.19600
H714        H  0.16296032  0.97003834  0.34567096     0.19700
C715        C  0.00993532  0.83548779  0.31706610    -0.06200
C716        C  0.02165835  0.82945657  0.34014028    -0.17300
C717        C  0.03839223  0.84653228  0.35165459     0.11000
C718        C  0.04307485  0.87026444  0.34005257    -0.06100
C719        C  0.03251087  0.87556545  0.31626524    -0.17300
C720        C  0.01608141  0.85844249  0.30465180     0.11100
S721        S  0.05229742  0.83755322  0.38154843    -0.32300
S722        S  0.00117482  0.86824219  0.27550820    -0.32300
H723        H  0.00052673  0.84389476  0.26473720     0.29100
H724        H  0.07444985  0.85227645  0.37865883     0.29100
H725        H  0.01667611  0.81198671  0.34985914     0.19600
H726        H  0.03587630  0.89384604  0.30736451     0.19700
C727        C  0.02025180  0.96182568  0.44955017    -0.06200
C728        C  0.00526215  0.95489371  0.42870774    -0.17300
C729        C  0.01584350  0.94245711  0.40776589     0.11000
C730        C  0.04197430  0.93595549  0.40786773    -0.06100
C731        C  0.05681883  0.94245685  0.42890706    -0.17300
C732        C  0.04642847  0.95567738  0.44943538     0.11100
S733        S  0.99522019  0.93674433  0.38112711    -0.32300
S734        S  0.06800146  0.96559003  0.47395481    -0.32300
H735        H  0.05705490  0.98980365  0.47694358     0.29100
H736        H  0.01371078  0.94215986  0.36253333     0.29100
H737        H  0.98518710  0.95961979  0.42852139     0.19600
H738        H  0.07691397  0.93783837  0.42899294     0.19700
C739        C  0.79190296  0.97257907  0.31173891    -0.06200
C740        C  0.78250469  0.96282099  0.33474817    -0.17300
C741        C  0.79681119  0.94544247  0.34908018     0.11000
C742        C  0.82098006  0.93787012  0.34023228    -0.06100
C743        C  0.82970246  0.94665436  0.31660924    -0.17300
C744        C  0.81544545  0.96379446  0.30228044     0.11100
S745        S  0.78446056  0.93334595  0.37872344    -0.32300
S746        S  0.82933861  0.97544565  0.27317882    -0.32300
H747        H  0.80623393  0.98005924  0.26075248     0.29100
H748        H  0.76135772  0.94682352  0.37829134     0.29100
H749        H  0.76457142  0.96988592  0.34204658     0.19600
H750        H  0.84834998  0.94100265  0.30980168     0.19700
C751        C  0.91787624  0.83395114  0.32088726    -0.06200
C752        C  0.90960391  0.82958825  0.34586055    -0.17300
C753        C  0.89283942  0.84640607  0.35797032     0.11000
C754        C  0.88432827  0.86829638  0.34491048    -0.06100
C755        C  0.89157003  0.87179821  0.31949297    -0.17300
C756        C  0.90830175  0.85508468  0.30745028     0.11100
S757        S  0.88387656  0.83937736  0.39029576    -0.32300
S758        S  0.91941922  0.86390474  0.27624069    -0.32300
H759        H  0.92219855  0.83915715  0.26692965     0.29100
H760        H  0.86046980  0.85228933  0.38968968     0.29100
H761        H  0.91731169  0.81368834  0.35641223     0.19600
H762        H  0.88553754  0.88870122  0.30940752     0.19700
C763        C  0.88445404  0.93710713  0.40988909    -0.06200
C764        C  0.89185476  0.92315779  0.43137249    -0.17300
C765        C  0.90501422  0.93461559  0.45134847     0.11000
C766        C  0.90989426  0.96102437  0.45067501    -0.06100
C767        C  0.90273365  0.97492037  0.42909880    -0.17300
C768        C  0.89074854  0.96324909  0.40855818     0.11100
S769        S  0.91656713  0.91415865  0.47618373    -0.32300
S770        S  0.88550264  0.98260979  0.38079152    -0.32300
H771        H  0.89062686  0.96315942  0.36324357     0.29100
H772        H  0.94002890  0.92677577  0.47863245     0.29100
H773        H  0.88781714  0.90299307  0.43236938     0.19600
H774        H  0.90685751  0.99506895  0.42803022     0.19700
C775        C  0.88507773  0.16981448  0.34260776    -0.06200
C776        C  0.89490016  0.16454457  0.31839054    -0.17300
C777        C  0.91139145  0.18141657  0.30618909     0.11000
C778        C  0.91822110  0.20425972  0.31831955    -0.06100
C779        C  0.90725810  0.21033189  0.34184629    -0.17300
C780        C  0.89069725  0.19331044  0.35414065     0.11100
S781        S  0.92516636  0.17145213  0.27641506    -0.32300
S782        S  0.87732021  0.20137001  0.38468473    -0.32300
H783        H  0.88802654  0.22578877  0.38634305     0.29100
H784        H  0.92934603  0.19587877  0.26655570     0.29100
H785        H  0.89078133  0.14648142  0.30947651     0.19600
H786        H  0.91287855  0.22774010  0.35117135     0.19700
C787        C  0.82146307  0.10031936  0.33925232    -0.06200
C788        C  0.82934586  0.09170578  0.31529549    -0.17300
C789        C  0.81476567  0.07437911  0.30161107     0.11000
C790        C  0.79187232  0.06512972  0.31215295    -0.06100
C791        C  0.78330010  0.07462478  0.33550589    -0.17300
C792        C  0.79770069  0.09235742  0.34902892     0.11100
S793        S  0.82748612  0.06305617  0.27188977    -0.32300
S794        S  0.78513002  0.10353326  0.37885743    -0.32300
H795        H  0.79782534  0.12703733  0.37853279     0.29100
H796        H  0.80389393  0.05893807  0.26024408     0.29100
H797        H  0.84760858  0.09761485  0.30769946     0.19600
H798        H  0.76580123  0.06738350  0.34370484     0.19700
C799        C  0.90591490  0.07785621  0.45161506    -0.06200
C800        C  0.91884586  0.08092425  0.42837005    -0.17300
C801        C  0.90756241  0.09335201  0.40774924     0.11000
C802        C  0.88296405  0.10371451  0.41040488    -0.06100
C803        C  0.86973923  0.10038290  0.43332059    -0.17300
C804        C  0.88071008  0.08728466  0.45373606     0.11100
S805        S  0.92428822  0.09491424  0.37774666    -0.32300
S806        S  0.86088116  0.08190054  0.48115980    -0.32300
H807        H  0.86852641  0.05645964  0.48418666     0.29100
H808        H  0.94453832  0.07879174  0.38440178     0.29100
H809        H  0.93798536  0.07359752  0.42632576     0.19600
H810        H  0.85050164  0.10759147  0.43511302     0.19700
C811        C  0.04204417  0.16587111  0.73464692    -0.06200
C812        C  0.03434790  0.18564870  0.71837401    -0.17300
C813        C  0.01788607  0.20486167  0.72668674     0.11000
C814        C  0.00945620  0.20501750  0.75210980    -0.06100
C815        C  0.01860907  0.18652002  0.76886765    -0.17300
C816        C  0.03415571  0.16669649  0.76036921     0.11100
S817        S  0.00683455  0.22759985  0.70361040    -0.32300
S818        S  0.03992855  0.14140179  0.78253189    -0.32300
H819        H  0.03303954  0.12231092  0.76524133     0.29100
H820        H  0.00113886  0.24694621  0.72108559     0.29100
H821        H  0.04026262  0.18548415  0.69866411     0.19600
H822        H  0.01154292  0.18611672  0.78821250     0.19700
C823        C  0.10909796  0.09693881  0.73817332    -0.06200
C824        C  0.13265312  0.09385296  0.72586259    -0.17300
C825        C  0.15133259  0.07756283  0.73566037     0.11000
C826        C  0.14656377  0.06431796  0.75849471    -0.06100
C827        C  0.12353025  0.06831630  0.77137018    -0.17300
C828        C  0.10459874  0.08405910  0.76125389     0.11100
S829        S  0.17988131  0.07294275  0.71713385    -0.32300
S830        S  0.07366855  0.08475879  0.77617769    -0.32300
H831        H  0.08024420  0.07104559  0.79809986     0.29100
H832        H  0.19503503  0.06318868  0.73673505     0.29100
H833        H  0.13602820  0.10329523  0.70788295     0.19600
H834        H  0.11961847  0.05736150  0.78834826     0.19700
C835        C  0.04527541  0.09811527  0.66881263    -0.06200
C836        C  0.04488180  0.11122592  0.64565501    -0.17300
C837        C  0.03473091  0.10014447  0.62377781     0.11000
C838        C  0.02424243  0.07534749  0.62499566    -0.06100
C839        C  0.02482101  0.06235433  0.64838056    -0.17300
C840        C  0.03484798  0.07348399  0.67016951     0.11100
S841        S  0.03486931  0.11916521  0.59540284    -0.32300
S842        S  0.03280788  0.05563296  0.69934359    -0.32300
H843        H  0.02863072  0.07676747  0.71509495     0.29100
H844        H  0.05149147  0.10254078  0.58260352     0.29100
H845        H  0.05277150  0.13021765  0.64457651     0.19600
H846        H  0.01682988  0.04345615  0.64997294     0.19700
C847        C  0.91747331  0.20699488  0.75364142    -0.06200
C848        C  0.91062060  0.18641322  0.76902669    -0.17300
C849        C  0.89571939  0.16665626  0.75963582     0.11000
C850        C  0.88610895  0.16803994  0.73465063    -0.06100
C851        C  0.89128412  0.18982240  0.72001832    -0.17300
C852        C  0.90697094  0.20919446  0.72920446     0.11100
S853        S  0.89306945  0.13882085  0.77923940    -0.32300
S854        S  0.91438494  0.23540206  0.70842217    -0.32300
H855        H  0.92039569  0.25267535  0.72780385     0.29100
H856        H  0.89860423  0.12186609  0.75938537     0.29100
H857        H  0.91925975  0.18437545  0.78755290     0.19600
H858        H  0.88396922  0.19121211  0.70088665     0.19700
C859        C  0.81982157  0.09898563  0.73504519    -0.06200
C860        C  0.79711026  0.09541003  0.72157759    -0.17300
C861        C  0.77780453  0.07965673  0.73104658     0.11000
C862        C  0.78112468  0.06732954  0.75454070    -0.06100
C863        C  0.80299527  0.07221105  0.76876303    -0.17300
C864        C  0.82257026  0.08735526  0.75907692     0.11100
S865        S  0.75016417  0.07456506  0.71164533    -0.32300
S866        S  0.85160742  0.08826566  0.77695276    -0.32300
H867        H  0.86769484  0.08608352  0.75569381     0.29100
H868        H  0.73359633  0.06854493  0.73177392     0.29100
H869        H  0.79482764  0.10419439  0.70312477     0.19600
H870        H  0.80587499  0.06217650  0.78649507     0.19700
C871        C  0.91065332  0.07809227  0.62599076    -0.06200
C872        C  0.88510251  0.08560639  0.62360905    -0.17300
C873        C  0.87240251  0.09831385  0.64326949     0.11000
C874        C  0.88516360  0.10292601  0.66633599    -0.06100
C875        C  0.91074064  0.09574759  0.66860661    -0.17300
C876        C  0.92372082  0.08398965  0.64865897     0.11100
S877        S  0.84029561  0.10879669  0.63736127    -0.32300
S878        S  0.95725079  0.07846757  0.65297628    -0.32300
H879        H  0.96388527  0.08667017  0.62841114     0.29100
H880        H  0.84097487  0.12991139  0.65362148     0.29100
H881        H  0.87491322  0.08162131  0.60625069     0.19600
H882        H  0.92081315  0.09958399  0.68607596     0.19700
C883        C  0.88291747  0.87345137  0.73449113    -0.06200
C884        C  0.89156018  0.87954713  0.75888449    -0.17300
C885        C  0.90949604  0.86441087  0.77132189     0.11000
C886        C  0.91904364  0.84242999  0.75927822    -0.06100
C887        C  0.90930455  0.83541119  0.73558137    -0.17300
C888        C  0.89124566  0.85053519  0.72315503     0.11100
S889        S  0.92137410  0.87572345  0.80129353    -0.32300
S890        S  0.88029632  0.84002657  0.69256024    -0.32300
H891        H  0.85673508  0.85263904  0.69360543     0.29100
H892        H  0.92837685  0.85198092  0.81114874     0.29100
H893        H  0.88553094  0.89714819  0.76768252     0.19600
H894        H  0.91669720  0.81864827  0.72619404     0.19700
C895        C  0.81523141  0.94096611  0.73246920    -0.06200
C896        C  0.79359287  0.94775340  0.71837506    -0.17300
C897        C  0.77549625  0.96485487  0.72794979     0.11000
C898        C  0.77868879  0.97520727  0.75238421    -0.06100
C899        C  0.79936960  0.96725013  0.76710299    -0.17300
C900        C  0.81791445  0.95082287  0.75729108     0.11100
S901        S  0.74969970  0.97408339  0.70749350    -0.32300
S902        S  0.84591243  0.94585537  0.77630170    -0.32300
H903        H  0.86323972  0.94834206  0.75604158     0.29100
H904        H  0.73285131  0.98132829  0.72694921     0.29100
H905        H  0.79132101  0.94046896  0.69931367     0.19600
H906        H  0.80230154  0.97572938  0.78557570     0.19700
C907        C  0.88060182  0.93705229  0.66414311    -0.06200
C908        C  0.88665385  0.96293152  0.66625701    -0.17300
C909        C  0.89886988  0.97603992  0.64662334     0.11000
C910        C  0.90626624  0.96291537  0.62438131    -0.06100
C911        C  0.90005114  0.93703747  0.62213855    -0.17300
C912        C  0.88711031  0.92407873  0.64156222     0.11100
S913        S  0.90325171  0.00974016  0.65080418    -0.32300
S914        S  0.87894232  0.89129151  0.63602067    -0.32300
H915        H  0.85633750  0.89156681  0.65037187     0.29100
H916        H  0.89708670  0.01595840  0.62561322     0.29100
H917        H  0.88162917  0.97315049  0.68338750     0.19600
H918        H  0.90533254  0.92678757  0.60510722     0.19700
C919        C  0.11599621  0.93984041  0.73390512    -0.06200
C920        C  0.13876162  0.94604936  0.72125762    -0.17300
C921        C  0.15664656  0.96221960  0.73240823     0.11000
C922        C  0.15168499  0.97240118  0.75661961    -0.06100
C923        C  0.13008328  0.96456587  0.77007735    -0.17300
C924        C  0.11192932  0.94894714  0.75885183     0.11100
S925        S  0.18467957  0.97051440  0.71443560    -0.32300
S926        S  0.08266617  0.94427649  0.77621934    -0.32300
H927        H  0.06675691  0.94834953  0.75522392     0.29100
H928        H  0.19991171  0.97597237  0.73559293     0.29100
H929        H  0.14215657  0.93902691  0.70223840     0.19600
H930        H  0.12607215  0.97279188  0.78850115     0.19700
C931        C  0.04731463  0.87511576  0.73427684    -0.06200
C932        C  0.03706068  0.88243908  0.75776981    -0.17300
C933        C  0.01944833  0.86716188  0.77058480     0.11000
C934        C  0.01193778  0.84379818  0.75986999    -0.06100
C935        C  0.02317511  0.83580004  0.73704864    -0.17300
C936        C  0.04083794  0.85114951  0.72418886     0.11100
S937        S  0.00543506  0.87969834  0.79923989    -0.32300
S938        S  0.05362754  0.83958086  0.69460853    -0.32300
H939        H  0.07639845  0.85354031  0.69545899     0.29100
H940        H  0.99961268  0.85615450  0.81038014     0.29100
H941        H  0.04176870  0.90087781  0.76554850     0.19600
H942        H  0.01720319  0.81804630  0.72858826     0.19700
C943        C  0.05121554  0.93986945  0.66523543    -0.06200
C944        C  0.04637931  0.92605569  0.64306187    -0.17300
C945        C  0.03369981  0.93706153  0.62245780     0.11000
C946        C  0.02615017  0.96286884  0.62347431    -0.06100
C947        C  0.03135336  0.97676739  0.64560765    -0.17300
C948        C  0.04333047  0.96555386  0.66651075     0.11100
S949        S  0.02611134  0.91653713  0.59634096    -0.32300
S950        S  0.04676618  0.98478088  0.69458465    -0.32300
H951        H  0.04277101  0.96488988  0.71198073     0.29100
H952        H  0.00091942  0.92534410  0.59441969     0.29100
H953        H  0.05200044  0.90627275  0.64203551     0.19600
H954        H  0.02557173  0.99647874  0.64686763     0.19700
C955        C  0.24509407  0.06589692  0.22271531    -0.06200
C956        C  0.27006122  0.07422018  0.22695163    -0.17300
C957        C  0.28136747  0.09254489  0.21121606     0.11000
C958        C  0.26785966  0.10202212  0.19008677    -0.06100
C959        C  0.24213559  0.09534294  0.18732162    -0.17300
C960        C  0.23068114  0.07738045  0.20327179     0.11100
S961        S  0.31304222  0.10301155  0.21891658    -0.32300
S962        S  0.19812859  0.06879704  0.19676025    -0.32300
H963        H  0.20090214  0.04266817  0.20146363     0.29100
H964        H  0.31059631  0.12714377  0.20767527     0.29100
H965        H  0.28103532  0.06584766  0.24217299     0.19600
H966        H  0.23137173  0.10267383  0.17144515     0.19700
C967        C  0.26448426  0.16705832  0.12085229    -0.06200
C968        C  0.27756661  0.18885550  0.11262739    -0.17300
C969        C  0.26613187  0.20644722  0.09629824     0.11000
C970        C  0.24108484  0.20223293  0.08780707    -0.06100
C971        C  0.22740499  0.18140934  0.09725074    -0.17300
C972        C  0.23881074  0.16367928  0.11353559     0.11100
S973        S  0.28503023  0.23289448  0.08534679    -0.32300
S974        S  0.22132555  0.13530838  0.12196360    -0.32300
H975        H  0.19731555  0.14390419  0.11397899     0.29100
H976        H  0.26446605  0.24879758  0.07919461     0.29100
H977        H  0.29716716  0.19169410  0.11822503     0.19600
H978        H  0.20846587  0.17789743  0.09006149     0.19700
C979        C  0.37564426  0.07675654  0.09758716    -0.06200
C980        C  0.35310171  0.08162265  0.08415900    -0.17300
C981        C  0.33209703  0.09334185  0.09570422     0.11000
C982        C  0.33366829  0.10157049  0.12119394    -0.06100
C983        C  0.35611094  0.09664156  0.13470288    -0.17300
C984        C  0.37676421  0.08397024  0.12344762     0.11100
S985        S  0.30344940  0.09589529  0.07717280    -0.32300
S986        S  0.40315987  0.07616894  0.14368775    -0.32300
H987        H  0.40627192  0.05149536  0.13391931     0.29100
H988        H  0.28665809  0.09161383  0.09757940     0.29100
H989        H  0.35160916  0.07583228  0.06451254     0.19600
H990        H  0.35737674  0.10229515  0.15440737     0.19700
C991        C  0.26248230  0.93977555  0.18491055    -0.06200
C992        C  0.27420981  0.94309301  0.20855078    -0.17300
C993        C  0.26404902  0.95978434  0.22660118     0.11000
C994        C  0.24179188  0.97354559  0.22087220    -0.06100
C995        C  0.22909671  0.96887305  0.19804772    -0.17300
C996        C  0.23934925  0.95248390  0.17987392     0.11100
S997        S  0.28112419  0.96401932  0.25583336    -0.32300
S998        S  0.22339009  0.95075081  0.14971886    -0.32300
H999        H  0.24571440  0.95172657  0.13494618     0.29100
H1000       H  0.25992044  0.97129141  0.27042542     0.29100
H1001       H  0.29190543  0.93334611  0.21256036     0.19600
H1002       H  0.21217410  0.97970551  0.19349165     0.19700
C1003       C  0.26304290  0.87303997  0.11767834    -0.06200
C1004       C  0.23868737  0.87827849  0.10816228    -0.17300
C1005       C  0.22680775  0.86180315  0.09112382     0.11000
C1006       C  0.23941674  0.83935113  0.08351112    -0.06100
C1007       C  0.26302401  0.83331319  0.09422978    -0.17300
C1008       C  0.27487978  0.84977863  0.11132882     0.11100
S1009       S  0.19684892  0.87191389  0.07787804    -0.32300
S1010       S  0.30544697  0.84042735  0.12362402    -0.32300
H1011       H  0.30366277  0.85431807  0.14630651     0.29100
H1012       H  0.18798552  0.84782803  0.07085247     0.29100
H1013       H  0.22947066  0.89608694  0.11287732     0.19600
H1014       H  0.27286839  0.81624490  0.08823156     0.19700
C1015       C  0.33362330  0.93692827  0.12274571    -0.06200
C1016       C  0.33237550  0.96304570  0.11742926    -0.17300
C1017       C  0.35292025  0.97599885  0.10652063     0.11000
C1018       C  0.37503731  0.96245756  0.09925181    -0.06100
C1019       C  0.37653165  0.93640423  0.10502324    -0.17300
C1020       C  0.35635758  0.92367237  0.11710891     0.11100
S1021       S  0.35021909  0.01005019  0.10391335    -0.32300
S1022       S  0.36121493  0.89086773  0.12571359    -0.32300
H1023       H  0.34595770  0.89150745  0.14768184     0.29100
H1024       H  0.37570468  0.01481384  0.11043053     0.29100
H1025       H  0.31528838  0.97358806  0.12214247     0.19600
H1026       H  0.39356838  0.92586803  0.10014252     0.19700
C1027       C  0.26675853  0.94091377  0.89406729    -0.06200
C1028       C  0.28051915  0.94857837  0.87248358    -0.17300
C1029       C  0.26994062  0.96525220  0.85471464     0.11000
C1030       C  0.24506885  0.97456191  0.85851264    -0.06100
C1031       C  0.23070075  0.96568115  0.87912916    -0.17300
C1032       C  0.24131187  0.94928878  0.89711211     0.11100
S1033       S  0.28957115  0.97528118  0.82843939    -0.32300
S1034       S  0.22216201  0.94199626  0.92465394    -0.32300
H1035       H  0.24215967  0.94395698  0.94216586     0.29100
H1036       H  0.26939796  0.98076948  0.81190178     0.29100
H1037       H  0.29993408  0.94213014  0.86987436     0.19600
H1038       H  0.21176376  0.97321388  0.88233075     0.19700
C1039       C  0.26644668  0.87012793  0.95676907    -0.06200
C1040       C  0.24226145  0.87600899  0.96645812    -0.17300
C1041       C  0.23003039  0.85991832  0.98365614     0.11000
C1042       C  0.24212399  0.83727145  0.99135382    -0.06100
C1043       C  0.26547113  0.83042657  0.98034215    -0.17300
C1044       C  0.27764228  0.84652282  0.96291373     0.11100
S1045       S  0.20045071  0.87081587  0.99733288    -0.32300
S1046       S  0.30772789  0.83643184  0.94986894    -0.32300
H1047       H  0.30579286  0.85060121  0.92732205     0.29100
H1048       H  0.19038154  0.84668760  0.00265481     0.29100
H1049       H  0.23357585  0.89412630  0.96195012     0.19600
H1050       H  0.27483563  0.81309546  0.98632176     0.19700
C1051       C  0.33457772  0.93604004  0.95969133    -0.06200
C1052       C  0.35657847  0.94213130  0.94577640    -0.17300
C1053       C  0.37717340  0.95460272  0.95705237     0.11000
C1054       C  0.37640082  0.96042046  0.98324327    -0.06100
C1055       C  0.35434193  0.95431291  0.99714551    -0.17300
C1056       C  0.33339532  0.94266281  0.98567034     0.11100
S1057       S  0.40298150  0.96406976  0.93652823    -0.32300
S1058       S  0.30539609  0.93794669  0.00502821    -0.32300
H1059       H  0.28781937  0.94270901  0.98556426     0.29100
H1060       H  0.40619443  0.98804994  0.94781841     0.29100
H1061       H  0.35747546  0.93764396  0.92574356     0.19600
H1062       H  0.35321714  0.95903653  0.01711604     0.19700
C1063       C  0.26433894  0.16334376  0.96420996    -0.06200
C1064       C  0.27785366  0.18501311  0.97187742    -0.17300
C1065       C  0.26656685  0.20342524  0.98740227     0.11000
C1066       C  0.24121003  0.20021298  0.99564411    -0.06100
C1067       C  0.22718770  0.17943438  0.98684626    -0.17300
C1068       C  0.23846276  0.16083272  0.97155307     0.11100
S1069       S  0.28585444  0.22987021  0.99739447    -0.32300
S1070       S  0.21934965  0.13334447  0.96431458    -0.32300
H1071       H  0.23921340  0.11562466  0.96673196     0.29100
H1072       H  0.26553059  0.24645941  0.00259793     0.29100
H1073       H  0.29754678  0.18733334  0.96616465     0.19600
H1074       H  0.20792919  0.17657534  0.99371414     0.19700
C1075       C  0.26584928  0.10073372  0.89320232    -0.06200
C1076       C  0.24154997  0.09088401  0.89830418    -0.17300
C1077       C  0.22974819  0.07418516  0.88150665     0.11000
C1078       C  0.24241573  0.06698709  0.85900335    -0.06100
C1079       C  0.26594801  0.07810806  0.85300954    -0.17300
C1080       C  0.27765551  0.09513326  0.86972169     0.11100
S1081       S  0.19988999  0.06034691  0.89123603    -0.32300
S1082       S  0.30794788  0.10835848  0.86045677    -0.32300
H1083       H  0.30592655  0.13045240  0.87527743     0.15900
H1084       H  0.18972838  0.05857878  0.86674083     0.29100
H1085       H  0.23234978  0.09495634  0.91627519     0.19600
H1086       H  0.27583618  0.07248031  0.83584092     0.19700
C1087       C  0.37675772  0.07430941  0.98037992    -0.06200
C1088       C  0.37828333  0.10039750  0.97490004    -0.17300
C1089       C  0.35809890  0.11331498  0.96323721     0.11000
C1090       C  0.33552834  0.10005808  0.95718838    -0.06100
C1091       C  0.33432618  0.07384371  0.96197243    -0.17300
C1092       C  0.35469002  0.06077978  0.97312247     0.11100
S1093       S  0.36256941  0.14653814  0.95615153    -0.32300
S1094       S  0.35257330  0.02667467  0.97686866    -0.32300
H1095       H  0.32893528  0.02339262  0.96493155     0.29100
H1096       H  0.34746864  0.14673900  0.93421269     0.29100
H1097       H  0.39523493  0.11089044  0.97998648     0.19600
H1098       H  0.31717151  0.06361164  0.95711392     0.19700
C1099       C  0.68325930  0.19986538  0.08303684    -0.06200
C1100       C  0.65939226  0.20605384  0.09335206    -0.17300
C1101       C  0.64715021  0.18976802  0.11059890     0.11000
C1102       C  0.65893107  0.16662570  0.11751609    -0.06100
C1103       C  0.68322303  0.16104129  0.10788637    -0.17300
C1104       C  0.69539375  0.17723557  0.09072692     0.11100
S1105       S  0.61634395  0.19922202  0.12243861    -0.32300
S1106       S  0.72503412  0.16647855  0.07712976    -0.32300
H1107       H  0.73572741  0.19067639  0.07382740     0.29100
H1108       H  0.61802922  0.18606927  0.14559608     0.29100
H1109       H  0.64976267  0.22312400  0.08704966     0.19600
H1110       H  0.69227224  0.14319363  0.11276171     0.19700
C1111       C  0.69379528  0.06645278  0.21395067    -0.06200
C1112       C  0.67039912  0.07575586  0.22289188    -0.17300
C1113       C  0.65604707  0.09296506  0.20848667     0.11000
C1114       C  0.66491669  0.10048999  0.18426318    -0.06100
C1115       C  0.68909858  0.09240362  0.17618032    -0.17300
C1116       C  0.70362070  0.07567977  0.19078141     0.11100
S1117       S  0.62642713  0.10412813  0.22174793    -0.32300
S1118       S  0.73348706  0.06488508  0.17777121    -0.32300
H1119       H  0.74556495  0.06154966  0.20124553     0.29100
H1120       H  0.62563942  0.12702157  0.20799645     0.29100
H1121       H  0.66274140  0.06865462  0.24065140     0.19600
H1122       H  0.69619639  0.09812032  0.15770360     0.19700
C1123       C  0.59048685  0.10080781  0.12524664    -0.06200
C1124       C  0.59227060  0.07460908  0.12057496    -0.17300
C1125       C  0.57242065  0.06116785  0.10915584     0.11000
C1126       C  0.55034073  0.07411217  0.10096549    -0.06100
C1127       C  0.54828088  0.10023781  0.10606251    -0.17300
C1128       C  0.56778432  0.11356712  0.11839368     0.11100
S1129       S  0.57609514  0.02732165  0.10682487    -0.32300
S1130       S  0.56207513  0.14659417  0.12543111    -0.32300
H1131       H  0.57673240  0.14714216  0.14766153     0.29100
H1132       H  0.55038645  0.02173447  0.11184101     0.29100
H1133       H  0.60935762  0.06441301  0.12587174     0.19600
H1134       H  0.53133294  0.11042552  0.10033041     0.19700
C1135       C  0.65988549  0.16717774  0.95713292    -0.06200
C1136       C  0.68563633  0.16394322  0.96342561    -0.17300
C1137       C  0.69774639  0.18022541  0.98048243     0.11000
C1138       C  0.68403899  0.20074839  0.99105710    -0.06100
C1139       C  0.65899009  0.20523278  0.98317370    -0.17300
C1140       C  0.64682578  0.18884137  0.96624684     0.11100
S1141       S  0.73009373  0.17260270  0.98907645    -0.32300
S1142       S  0.61445249  0.19624725  0.95774407    -0.32300
H1143       H  0.61471786  0.18333157  0.93443698     0.29100
H1144       H  0.72960392  0.18222398  0.01386802     0.29100
H1145       H  0.69589166  0.14747271  0.95651067     0.19600
H1146       H  0.64840127  0.22091811  0.99131463     0.19700
C1147       C  0.65971501  0.10069626  0.88944565    -0.06200
C1148       C  0.68512405  0.09302710  0.89257367    -0.17300
C1149       C  0.69693121  0.07665279  0.87512808     0.11000
C1150       C  0.68320479  0.06795798  0.85394701    -0.06100
C1151       C  0.65845121  0.07700573  0.84988409    -0.17300
C1152       C  0.64670118  0.09349078  0.86718714     0.11100
S1153       S  0.72864221  0.06497097  0.88118252    -0.32300
S1154       S  0.61486863  0.10407486  0.86017203    -0.32300
H1155       H  0.61649935  0.12703742  0.87365277     0.29100
H1156       H  0.73293982  0.07910311  0.90336359     0.29100
H1157       H  0.69514198  0.09854172  0.90958864     0.19600
H1158       H  0.64777438  0.07018405  0.83374375     0.19700
C1159       C  0.59341666  0.09935425  0.95806166    -0.06200
C1160       C  0.57062065  0.11263110  0.96216717    -0.17300
C1161       C  0.55000072  0.10135069  0.97485836     0.11000
C1162       C  0.55169954  0.07575247  0.98311950    -0.06100
C1163       C  0.57466889  0.06261173  0.97912646    -0.17300
C1164       C  0.59552631  0.07417623  0.96717020     0.11100
S1165       S  0.52278579  0.12123646  0.98112230    -0.32300
S1166       S  0.62460191  0.05609054  0.96508206    -0.32300
H1167       H  0.64104516  0.07692422  0.96807385     0.29100
H1168       H  0.51902507  0.11217875  0.00598345     0.29100
H1169       H  0.56902046  0.13213851  0.95575733     0.19600
H1170       H  0.57654768  0.04318065  0.98563603     0.19700
C1171       C  0.66783541  0.87989225  0.96081915    -0.06200
C1172       C  0.65786924  0.85530754  0.96346907    -0.17300
C1173       C  0.66964759  0.83734735  0.97926623     0.11000
C1174       C  0.69199397  0.84398647  0.99235251    -0.06100
C1175       C  0.70280846  0.86801656  0.98843693    -0.17300
C1176       C  0.69083805  0.88613199  0.97313822     0.11100
S1177       S  0.65512611  0.80666396  0.98428899    -0.32300
S1178       S  0.70479227  0.91742989  0.97189790    -0.32300
H1179       H  0.68173437  0.93091491  0.97103019     0.29100
H1180       H  0.63357376  0.81090465  0.96914831     0.29100
H1181       H  0.64031740  0.85058895  0.95390751     0.19600
H1182       H  0.71954981  0.87339652  0.99907581     0.19700
C1183       C  0.66257288  0.94278754  0.89013026    -0.06200
C1184       C  0.68726936  0.95234717  0.89330447    -0.17300
C1185       C  0.69816635  0.96871894  0.87545977     0.11000
C1186       C  0.68414302  0.97584237  0.85382708    -0.06100
C1187       C  0.66016812  0.96498850  0.84969889    -0.17300
C1188       C  0.64935728  0.94830222  0.86746095     0.11100
S1189       S  0.72868390  0.98237474  0.88298183    -0.32300
S1190       S  0.61840975  0.93537440  0.86049238    -0.32300
H1191       H  0.62121428  0.91321832  0.87515064     0.29100
H1192       H  0.73726333  0.98480417  0.85787382     0.29100
H1193       H  0.69757123  0.94830864  0.91060731     0.19600
H1194       H  0.64928894  0.97056900  0.83319436     0.19700
C1195       C  0.59557994  0.94111478  0.95779985    -0.06200
C1196       C  0.57287983  0.92729056  0.96020468    -0.17300
C1197       C  0.55145372  0.93760993  0.97241617     0.11000
C1198       C  0.55232391  0.96273136  0.98203292    -0.06100
C1199       C  0.57517986  0.97647198  0.97946275    -0.17300
C1200       C  0.59673564  0.96591209  0.96789670     0.11100
S1201       S  0.52429437  0.91712156  0.97632742    -0.32300
S1202       S  0.62534618  0.98484705  0.96738671    -0.32300
H1203       H  0.64244702  0.96443920  0.96958012     0.29100
H1204       H  0.52016994  0.92383846  0.00183511     0.29100
H1205       H  0.57199444  0.90809605  0.95287309     0.19600
H1206       H  0.57646094  0.99560111  0.98686854     0.19700
C1207       C  0.69510495  0.97403521  0.21175501    -0.06200
C1208       C  0.70596152  0.96673816  0.18855242    -0.17300
C1209       C  0.69257833  0.95145108  0.17148831     0.11000
C1210       C  0.66784139  0.94286890  0.17798672    -0.06100
C1211       C  0.65783260  0.94887866  0.20196635    -0.17300
C1212       C  0.67119923  0.96419819  0.21889718     0.11100
S1213       S  0.70728913  0.94572918  0.14105816    -0.32300
S1214       S  0.65591930  0.97211285  0.24853221    -0.32300
H1215       H  0.67830490  0.97712926  0.26204677     0.29100
H1216       H  0.68465361  0.94717565  0.12703895     0.29100
H1217       H  0.72410813  0.97472669  0.18282899     0.19600
H1218       H  0.63911972  0.94203031  0.20732490     0.19700
C1219       C  0.65469040  0.86978360  0.11717115    -0.06200
C1220       C  0.67835246  0.85862235  0.12345359    -0.17300
C1221       C  0.69218430  0.84423241  0.10578953     0.11000
C1222       C  0.67999346  0.83556906  0.08355520    -0.06100
C1223       C  0.65451631  0.84253021  0.07980435    -0.17300
C1224       C  0.64338301  0.86196733  0.09388140     0.11100
S1225       S  0.72582648  0.84091662  0.11164442    -0.32300
S1226       S  0.61885281  0.87895497  0.07694481    -0.32300
H1227       H  0.62944795  0.90296813  0.08178501     0.29100
H1228       H  0.73339601  0.84302137  0.08613836     0.29100
H1229       H  0.68761844  0.86290749  0.14114221     0.19600
H1230       H  0.64492024  0.83625121  0.06275963     0.19700
C1231       C  0.58978300  0.93525789  0.12538582    -0.06200
C1232       C  0.56501931  0.92585371  0.12829526    -0.17300
C1233       C  0.54469731  0.93598533  0.11435451     0.11000
C1234       C  0.54890437  0.95683916  0.09762055    -0.06100
C1235       C  0.57409137  0.96505913  0.09387631    -0.17300
C1236       C  0.59437164  0.95458994  0.10730590     0.11100
S1237       S  0.51456274  0.92004739  0.11764903    -0.32300
S1238       S  0.62573888  0.96656189  0.09985597    -0.32300
H1239       H  0.63861826  0.94336285  0.10266412     0.29100
H1240       H  0.51080537  0.91848970  0.09129064     0.29100
H1241       H  0.56160937  0.91007867  0.14109821     0.19600
H1242       H  0.57826811  0.97986440  0.08021791     0.19700
C1243       C  0.04121961  0.32788706  0.18661010    -0.06200
C1244       C  0.03449591  0.34228904  0.20801960    -0.17300
C1245       C  0.01765496  0.33274371  0.22630371     0.11000
C1246       C  0.00751154  0.30815777  0.22333969    -0.06100
C1247       C  0.01513599  0.29328734  0.20265707    -0.17300
C1248       C  0.03149995  0.30299527  0.18399161     0.11100
S1249       S  0.00848972  0.35334971  0.25204043    -0.32300
S1250       S  0.03704182  0.28467111  0.15551194    -0.32300
H1251       H  0.02403683  0.26261215  0.16322947     0.29100
H1252       H  0.00160513  0.33392268  0.26905529     0.29100
H1253       H  0.04170896  0.36146405  0.21000555     0.19600
H1254       H  0.00655802  0.27476493  0.20016144     0.19700
C1255       C  0.10982390  0.32434254  0.12102199    -0.06200
C1256       C  0.10284842  0.30068592  0.11101723    -0.17300
C1257       C  0.11835810  0.28817441  0.09347691     0.11000
C1258       C  0.14156185  0.29937400  0.08588091    -0.06100
C1259       C  0.14930319  0.32226934  0.09696581    -0.17300
C1260       C  0.13373806  0.33480534  0.11456216     0.11100
S1261       S  0.10612535  0.25951759  0.07931024    -0.32300
S1262       S  0.14484483  0.36456809  0.12722453    -0.32300
H1263       H  0.13083094  0.36321528  0.14996522     0.29100
H1264       H  0.12982159  0.24823227  0.07436680     0.29100
H1265       H  0.08439270  0.29269374  0.11561236     0.19600
H1266       H  0.16697646  0.33102970  0.09092352     0.19700
C1267       C  0.04675386  0.39464269  0.11992738    -0.06200
C1268       C  0.04104160  0.39138377  0.09415410    -0.17300
C1269       C  0.02854036  0.41024603  0.08029643     0.11000
C1270       C  0.02063921  0.43279375  0.09257430    -0.06100
C1271       C  0.02649329  0.43611930  0.11833776    -0.17300
C1272       C  0.03970274  0.41755174  0.13201052     0.11100
S1273       S  0.02439514  0.40473719  0.04683348    -0.32300
S1274       S  0.04742575  0.42460617  0.16454824    -0.32300
H1275       H  0.06995506  0.41022556  0.16520711     0.29100
H1276       H  0.03040843  0.42978659  0.03965182     0.29100
H1277       H  0.04639858  0.37392139  0.08467265     0.19600
H1278       H  0.02078150  0.45340451  0.12793648     0.19700
C1279       C  0.14230404  0.29904592  0.99364979    -0.06200
C1280       C  0.12050602  0.28591599  0.98587171    -0.17300
C1281       C  0.10306206  0.29700102  0.96908721     0.11000
C1282       C  0.10770039  0.32173789  0.95960432    -0.06100
C1283       C  0.13009494  0.33438555  0.96657986    -0.17300
C1284       C  0.14739631  0.32332111  0.98342679     0.11100
S1285       S  0.07369588  0.28053704  0.96228864    -0.32300
S1286       S  0.17467486  0.34183291  0.99260545    -0.32300
H1287       H  0.19009081  0.32113892  0.99945429     0.29100
H1288       H  0.07983086  0.25762710  0.97458954     0.29100
H1289       H  0.11627728  0.26769884  0.99447768     0.19600
H1290       H  0.13373542  0.35335771  0.95942386     0.19700
C1291       C  0.04606572  0.32294377  0.88792489    -0.06200
C1292       C  0.03667136  0.29853725  0.89322837    -0.17300
C1293       C  0.02012341  0.28629544  0.87662920     0.11000
C1294       C  0.01258844  0.29866769  0.85413809    -0.06100
C1295       C  0.02322492  0.32230285  0.84793155    -0.17300
C1296       C  0.04000094  0.33451731  0.86448131     0.11100
S1297       S  0.00706623  0.25618080  0.88657138    -0.32300
S1298       S  0.05202185  0.36521860  0.85508162    -0.32300
H1299       H  0.07419952  0.36423539  0.86984394     0.29100
H1300       H  0.00311013  0.24658655  0.86209150     0.29100
H1301       H  0.04098717  0.28955672  0.91120872     0.19600
H1302       H  0.01723161  0.33195699  0.83079947     0.19700
C1303       C  0.04450114  0.39217119  0.95200778    -0.06200
C1304       C  0.01856634  0.38957235  0.95790045    -0.17300
C1305       C  0.00489398  0.40920952  0.96944871     0.11000
C1306       C  0.01745815  0.43202751  0.97595050    -0.06100
C1307       C  0.04337011  0.43475157  0.96976575    -0.17300
C1308       C  0.05693121  0.41523518  0.95774100     0.11100
S1309       S  0.97131882  0.40416685  0.97449777    -0.32300
S1310       S  0.08985685  0.42112164  0.94995856    -0.32300
H1311       H  0.09056523  0.40561357  0.92829410     0.29100
H1312       H  0.96429187  0.42903902  0.96767276     0.29100
H1313       H  0.00883392  0.37200305  0.95343989     0.19600
H1314       H  0.05322901  0.45216906  0.97452303     0.19700
C1315       C  0.81657883  0.32020232  0.95608548    -0.06200
C1316       C  0.82407137  0.29791178  0.96858721    -0.17300
C1317       C  0.80828275  0.28629789  0.98654858     0.11000
C1318       C  0.78435623  0.29708432  0.99226400    -0.06100
C1319       C  0.77617442  0.31854480  0.97874817    -0.17300
C1320       C  0.79197613  0.33011369  0.96059128     0.11100
S1321       S  0.82065800  0.25909374  0.00327889    -0.32300
S1322       S  0.78023187  0.35804054  0.94461112    -0.32300
H1323       H  0.79538739  0.35531938  0.92273770     0.29100
H1324       H  0.79701694  0.24727658  0.00730070     0.29100
H1325       H  0.84299759  0.29033173  0.96544447     0.19600
H1326       H  0.75788237  0.32696870  0.98318253     0.19700
C1327       C  0.88667333  0.32181185  0.89189801    -0.06200
C1328       C  0.89046332  0.33324144  0.86811225    -0.17300
C1329       C  0.90709799  0.32260819  0.85020288     0.11000
C1330       C  0.92025590  0.30000432  0.85620102    -0.06100
C1331       C  0.91573326  0.28809877  0.87960290    -0.17300
C1332       C  0.89932555  0.29886653  0.89761825     0.11100
S1333       S  0.91209826  0.33988464  0.82101881    -0.32300
S1334       S  0.89690948  0.28469990  0.92879424    -0.32300
H1335       H  0.91105991  0.26266611  0.92340904     0.29100
H1336       H  0.92161122  0.31964244  0.80657510     0.29100
H1337       H  0.88093045  0.35096919  0.86377100     0.19600
H1338       H  0.92655082  0.27125956  0.88439371     0.19700
C1339       C  0.90140120  0.43249153  0.98049489    -0.06200
C1340       C  0.89481302  0.43502984  0.95478768    -0.17300
C1341       C  0.88261850  0.41535034  0.94170404     0.11000
C1342       C  0.87726369  0.39226804  0.95434481    -0.06100
C1343       C  0.88329746  0.38995857  0.98014356    -0.17300
C1344       C  0.89482487  0.40979423  0.99339723     0.11100
S1345       S  0.87403227  0.42102412  0.90911632    -0.32300
S1346       S  0.89970313  0.40511272  0.02691858    -0.32300
H1347       H  0.89305765  0.43011697  0.03361273     0.29100
H1348       H  0.85227648  0.40548640  0.90937669     0.29100
H1349       H  0.89939784  0.45240439  0.94470993     0.19600
H1350       H  0.87902183  0.37243210  0.99010490     0.19700
C1351       C  0.88250897  0.32486536  0.18604884    -0.06200
C1352       C  0.88812084  0.33924142  0.20775583    -0.17300
C1353       C  0.90452123  0.32992438  0.22644072     0.11000
C1354       C  0.91540494  0.30561589  0.22357401    -0.06100
C1355       C  0.90838870  0.29052556  0.20291320    -0.17300
C1356       C  0.89257105  0.30000781  0.18388653     0.11100
S1357       S  0.91222015  0.35047935  0.25262172    -0.32300
S1358       S  0.88862971  0.28052221  0.15608158    -0.32300
H1359       H  0.89150846  0.30055465  0.13861448     0.29100
H1360       H  0.91984117  0.33114162  0.26936892     0.29100
H1361       H  0.88047062  0.35826520  0.20965047     0.19600
H1362       H  0.91724487  0.27209756  0.20037953     0.19700
C1363       C  0.81610544  0.32131639  0.11860085    -0.06200
C1364       C  0.82202899  0.29715278  0.10905627    -0.17300
C1365       C  0.80568430  0.28471069  0.09230556     0.11000
C1366       C  0.78292132  0.29672951  0.08469187    -0.06100
C1367       C  0.77605251  0.31996014  0.09576684    -0.17300
C1368       C  0.79224035  0.33220243  0.11289634     0.11100
S1369       S  0.81615591  0.25470484  0.07946963    -0.32300
S1370       S  0.78180202  0.36199152  0.12618193    -0.32300
H1371       H  0.79669366  0.36066630  0.14822704     0.29100
H1372       H  0.79193510  0.24515641  0.07378125     0.29100
H1373       H  0.84018680  0.28853226  0.11356475     0.19600
H1374       H  0.75857328  0.32921204  0.09004915     0.19700
C1375       C  0.87993389  0.39224764  0.11988415    -0.06200
C1376       C  0.90624461  0.39092762  0.11525498    -0.17300
C1377       C  0.91948184  0.41108515  0.10406321     0.11000
C1378       C  0.90618216  0.43316369  0.09647189    -0.06100
C1379       C  0.87989035  0.43462878  0.10115007    -0.17300
C1380       C  0.86668769  0.41458215  0.11286281     0.11100
S1381       S  0.95348980  0.40768884  0.10088586    -0.32300
S1382       S  0.83315037  0.41898613  0.11864436    -0.32300
H1383       H  0.83241308  0.40505202  0.14140394     0.29100
H1384       H  0.95887225  0.43319367  0.10669529     0.29100
H1385       H  0.91669356  0.37400015  0.12057614     0.19600
H1386       H  0.86947620  0.45143383  0.09539813     0.19700
C1387       C  0.04065616  0.71575613  0.18178664    -0.06200
C1388       C  0.03467073  0.70264132  0.20423012    -0.17300
C1389       C  0.01888651  0.71348434  0.22272228     0.11000
C1390       C  0.00847938  0.73784904  0.21861794    -0.06100
C1391       C  0.01551148  0.75151574  0.19685193    -0.17300
C1392       C  0.03142040  0.74074825  0.17833422     0.11100
S1393       S  0.01146877  0.69472879  0.25041436    -0.32300
S1394       S  0.03735784  0.75800126  0.14923029    -0.32300
H1395       H  0.02603086  0.78100527  0.15676342     0.29100
H1396       H  0.00538154  0.71526505  0.26630221     0.29100
H1397       H  0.04186705  0.68355478  0.20706828     0.19600
H1398       H  0.00693462  0.76992304  0.19353907     0.19700
C1399       C  0.14345469  0.73886346  0.08280133    -0.06200
C1400       C  0.15107785  0.71675107  0.09556591    -0.17300
C1401       C  0.13482852  0.70470738  0.11297416     0.11000
C1402       C  0.11037516  0.71491042  0.11754640    -0.06100
C1403       C  0.10339636  0.73774590  0.10572594    -0.17300
C1404       C  0.11956886  0.74977296  0.08843108     0.11100
S1405       S  0.14592352  0.67596006  0.12791294    -0.32300
S1406       S  0.10748520  0.77748891  0.07225833    -0.32300
H1407       H  0.13114572  0.78862533  0.06682324     0.29100
H1408       H  0.13035023  0.67780538  0.14957552     0.29100
H1409       H  0.16926659  0.70816570  0.09100583     0.19600
H1410       H  0.08454915  0.74551346  0.10888571     0.19700
C1411       C  0.04653970  0.64519389  0.11826956    -0.06200
C1412       C  0.04500539  0.64556332  0.09166739    -0.17300
C1413       C  0.03376361  0.62569616  0.07824802     0.11000
C1414       C  0.02233227  0.60536630  0.09151823    -0.06100
C1415       C  0.02412924  0.60464934  0.11806745    -0.17300
C1416       C  0.03645574  0.62399628  0.13151681     0.11100
S1417       S  0.03596129  0.62688747  0.04422264    -0.32300
S1418       S  0.03940333  0.61989440  0.16532947    -0.32300
H1419       H  0.06309193  0.63213463  0.16720709     0.29100
H1420       H  0.03754760  0.60047035  0.04062039     0.29100
H1421       H  0.05276491  0.66146962  0.08110924     0.19600
H1422       H  0.01590579  0.58883694  0.12843148     0.19700
C1423       C  0.91591625  0.73858610  0.22072313    -0.06200
C1424       C  0.90698462  0.71388902  0.22520219    -0.17300
C1425       C  0.89002405  0.70221209  0.20847269     0.11000
C1426       C  0.88218545  0.71526728  0.18639713    -0.06100
C1427       C  0.88978755  0.74061204  0.18290077    -0.17300
C1428       C  0.90642366  0.75241933  0.19982717     0.11100
S1429       S  0.87980083  0.67035976  0.21586471    -0.32300
S1430       S  0.91698991  0.78411650  0.19211210    -0.32300
H1431       H  0.92047512  0.79221743  0.21716178     0.29100
H1432       H  0.85629972  0.67212048  0.20334630     0.29100
H1433       H  0.91432553  0.70316533  0.24113361     0.19600
H1434       H  0.88390353  0.75082846  0.16605494     0.19700
C1435       C  0.81401099  0.71560626  0.12057099    -0.06200
C1436       C  0.81807239  0.74070736  0.11257353    -0.17300
C1437       C  0.80156040  0.75254654  0.09557254     0.11000
C1438       C  0.78039323  0.73908882  0.08615373    -0.06100
C1439       C  0.77515048  0.71471341  0.09562356    -0.17300
C1440       C  0.79157084  0.70294292  0.11296084     0.11100
S1441       S  0.81032008  0.78366672  0.08415153    -0.32300
S1442       S  0.78347470  0.67143406  0.12379403    -0.32300
H1443       H  0.79730338  0.67258614  0.14652579     0.29100
H1444       H  0.78537561  0.79241555  0.08055439     0.29100
H1445       H  0.83521045  0.75059344  0.11822902     0.19600
H1446       H  0.75898133  0.70427216  0.08839363     0.19700
C1447       C  0.88195216  0.64942092  0.11784101    -0.06200
C1448       C  0.86769511  0.62773954  0.11168269    -0.17300
C1449       C  0.87852973  0.60737550  0.09835402     0.11000
C1450       C  0.90465086  0.60802212  0.09170139    -0.06100
C1451       C  0.91882701  0.62982501  0.09767577    -0.17300
C1452       C  0.90776578  0.65057197  0.11013574     0.11100
S1453       S  0.85757881  0.58190380  0.08927224    -0.32300
S1454       S  0.92742469  0.67830098  0.11444098    -0.32300
H1455       H  0.90775599  0.69598436  0.11056269     0.29100
H1456       H  0.86884926  0.57811741  0.06532154     0.29100
H1457       H  0.84777069  0.62682536  0.11697925     0.19600
H1458       H  0.93875079  0.63084734  0.09238945     0.19700
C1459       C  0.88597203  0.71913454  0.89048662    -0.06200
C1460       C  0.89286974  0.70654212  0.86799534    -0.17300
C1461       C  0.90967514  0.71765749  0.85053065     0.11000
C1462       C  0.91943483  0.74213460  0.85530297    -0.06100
C1463       C  0.91136240  0.75535224  0.87689577    -0.17300
C1464       C  0.89540061  0.74394171  0.89483441     0.11100
S1465       S  0.91947338  0.69896327  0.82357061    -0.32300
S1466       S  0.89072700  0.76079405  0.92423553    -0.32300
H1467       H  0.89436690  0.73933960  0.93975923     0.29100
H1468       H  0.92727113  0.71940736  0.80823828     0.29100
H1469       H  0.88591216  0.68749652  0.86451308     0.19600
H1470       H  0.91956826  0.77377067  0.88102226     0.19700
C1471       C  0.81916864  0.71895652  0.95796372    -0.06200
C1472       C  0.82579326  0.74252920  0.96845250    -0.17300
C1473       C  0.81019374  0.75440993  0.98643720     0.11000
C1474       C  0.78722893  0.74256235  0.99392684    -0.06100
C1475       C  0.77989417  0.71979308  0.98234020    -0.17300
C1476       C  0.79551740  0.70794284  0.96438272     0.11100
S1477       S  0.82193679  0.78336815  0.00050498    -0.32300
S1478       S  0.78465003  0.67840262  0.95101543    -0.32300
H1479       H  0.79786702  0.68089595  0.92790191     0.29100
H1480       H  0.79904898  0.79199260  0.01115972     0.29100
H1481       H  0.84398090  0.75102956  0.96370826     0.19600
H1482       H  0.76233291  0.71064544  0.98813391     0.19700
C1483       C  0.88095403  0.64720678  0.95171743    -0.06200
C1484       C  0.90713141  0.64808927  0.95663293    -0.17300
C1485       C  0.91968646  0.62783721  0.96819302     0.11000
C1486       C  0.90580019  0.60621274  0.97613048    -0.06100
C1487       C  0.87964969  0.60503501  0.97084896    -0.17300
C1488       C  0.86716151  0.62510879  0.95853111     0.11100
S1489       S  0.95365654  0.63052732  0.97122497    -0.32300
S1490       S  0.83384592  0.62106891  0.95164297    -0.32300
H1491       H  0.83408538  0.63556706  0.92922089     0.29100
H1492       H  0.95846718  0.60500081  0.96496675     0.29100
H1493       H  0.91800281  0.66480602  0.95141293     0.19600
H1494       H  0.86881269  0.58844313  0.97650913     0.19700
C1495       C  0.11213995  0.71431815  0.95653164    -0.06200
C1496       C  0.10721325  0.73885515  0.96567384    -0.17300
C1497       C  0.12362939  0.75068088  0.98272663     0.11000
C1498       C  0.14574285  0.73785722  0.99086323    -0.06100
C1499       C  0.15142158  0.71386275  0.98078493    -0.17300
C1500       C  0.13497288  0.70202228  0.96361065     0.11100
S1501       S  0.11365858  0.78080876  0.99565891    -0.32300
S1502       S  0.14373516  0.67094395  0.95218733    -0.32300
H1503       H  0.13068414  0.67277127  0.92904303     0.29100
H1504       H  0.13811575  0.79054539  0.99974403     0.29100
H1505       H  0.08964032  0.74833791  0.96062393     0.19600
H1506       H  0.16813484  0.70377448  0.98731640     0.19700
C1507       C  0.04571560  0.71790115  0.88946719    -0.06200
C1508       C  0.03522670  0.74133429  0.89666461    -0.17300
C1509       C  0.01822042  0.75425987  0.88093133     0.11000
C1510       C  0.01177561  0.74384487  0.85714546    -0.06100
C1511       C  0.02328732  0.72110125  0.84934455    -0.17300
C1512       C  0.04020319  0.70805875  0.86520022     0.11100
S1513       S  0.00316443  0.78236910  0.89353151    -0.32300
S1514       S  0.05316918  0.67843177  0.85391527    -0.32300
H1515       H  0.07555108  0.67934350  0.86837968     0.29100
H1516       H  0.99853521  0.79409058  0.87007072     0.29100
H1517       H  0.03908428  0.74885520  0.91537874     0.19600
H1518       H  0.01796415  0.71274818  0.83137028     0.19700
C1519       C  0.04570939  0.64706979  0.95175654    -0.06200
C1520       C  0.04900515  0.62243982  0.94232795    -0.17300
C1521       C  0.03642107  0.60161668  0.95335979     0.11000
C1522       C  0.02046012  0.60527740  0.97494606    -0.06100
C1523       C  0.01715395  0.63027108  0.98388407    -0.17300
C1524       C  0.02934923  0.65098574  0.97260389     0.11100
S1525       S  0.04097960  0.57139306  0.93809229    -0.32300
S1526       S  0.02336015  0.68193769  0.98603884    -0.32300
H1527       H  0.02554432  0.69575974  0.96333466     0.29100
H1528       H  0.01469228  0.56703650  0.93567530     0.29100
H1529       H  0.06128279  0.61946301  0.92603380     0.19600
H1530       H  0.00474059  0.63397965  0.99987941     0.19700
loop_ 
_geom_bond_atom_site_label_1 
_geom_bond_atom_site_label_2 
_geom_bond_distance 
_geom_bond_site_symmetry_2 
_ccdc_geom_bond_type 
C1            C2   1.402       .  A
C1            C6   1.402       .  A
C1         C1519   1.477       .  S
C2            C3   1.405       .  A
C2            H7   1.084       .  S
C3            C4   1.403       .  A
C3         C1507   1.482       .  S
C4            C5   1.405       .  A
C4            H8   1.084       .  S
C5            C6   1.405       .  A
C5         C1495   1.483       .  S
C6            H9   1.084       .  S
C10          C11   1.403       .  A
C10          C15   1.405       .  A
C10        C1483   1.486       .  S
C11          C12   1.404       .  A
C11          H16   1.084       .  S
C12          C13   1.402       .  A
C12        C1471   1.479       .  S
C13          C14   1.404       .  A
C13          H17   1.084       .  S
C14          C15   1.404       .  A
C14        C1459   1.485       .  S
C15          H18   1.084       .  S
C19          C20   1.404       .  A
C19          C24   1.405       .  A
C19        C1447   1.490       .  S
C20          C21   1.405       .  A
C20          H25   1.084       .  S
C21          C22   1.404       .  A
C21        C1435   1.484       .  S
C22          C23   1.404       .  A
C22          H26   1.084       .  S
C23          C24   1.407       .  A
C23        C1426   1.485       .  S
C24          H27   1.083       .  S
C28          C29   1.407       .  A
C28          C33   1.407       .  A
C28        C1411   1.491       .  S
C29          C30   1.406       .  A
C29          H34   1.083       .  S
C30          C31   1.402       .  A
C30        C1387   1.483       .  S
C31          C32   1.401       .  A
C31          H35   1.084       .  S
C32          C33   1.403       .  A
C32        C1402   1.479       .  S
C33          H36   1.084       .  S
C37          C38   1.404       .  A
C37          C42   1.406       .  A
C37        C1375   1.490       .  S
C38          C39   1.403       .  A
C38          H43   1.084       .  S
C39          C40   1.403       .  A
C39        C1351   1.483       .  S
C40          C41   1.403       .  A
C40          H44   1.084       .  S
C41          C42   1.408       .  A
C41        C1363   1.482       .  S
C42          H45   1.084       .  S
C46          C47   1.405       .  A
C46          C51   1.403       .  A
C46        C1342   1.484       .  S
C47          C48   1.405       .  A
C47          H52   1.084       .  S
C48          C49   1.405       .  A
C48        C1327   1.481       .  S
C49          C50   1.403       .  A
C49          H53   1.084       .  S
C50          C51   1.402       .  A
C50        C1315   1.480       .  S
C51          H54   1.084       .  S
C55          C56   1.404       .  A
C55          C60   1.403       .  A
C55        C1303   1.483       .  S
C56          C57   1.406       .  A
C56          H61   1.084       .  S
C57          C58   1.404       .  A
C57        C1282   1.485       .  S
C58          C59   1.404       .  A
C58          H62   1.084       .  S
C59          C60   1.404       .  A
C59        C1291   1.482       .  S
C60          H63   1.084       .  S
C64          C65   1.403       .  A
C64          C69   1.402       .  A
C64        C1267   1.483       .  S
C65          C66   1.403       .  A
C65          H70   1.084       .  S
C66          C67   1.402       .  A
C66        C1255   1.478       .  S
C67          C68   1.404       .  A
C67          H71   1.084       .  S
C68          C69   1.403       .  A
C68        C1243   1.481       .  S
C69          H72   1.084       .  S
O73         Zr85   2.442       .  S
O73          C75   1.288       .  A
O74        Zr111   2.431       .  S
O74          C75   1.288   1_655  A
C75        C1414   1.480       .  S
O76         Zr88   2.441   1_455  S
O76          C78   1.288       .  A
O77        Zr112   2.424       .  S
O77          C78   1.286   1_654  A
C78        C1306   1.482       .  S
O79         Zr88   2.444   1_455  S
O79          C81   1.287       .  A
O80        Zr111   2.431       .  S
O80          C81   1.289   1_654  A
C81        C1522   1.501       .  S
O82         Zr85   2.441       .  S
O82          C84   1.288       .  A
O83        Zr112   2.422       .  S
O83          C84   1.286   1_655  A
C84        C1270   1.481       .  S
Zr85         O86   2.434       .  S
Zr85         O87   2.435   1_455  S
Zr85         O91   2.375       .  S
Zr85         O92   2.373       .  S
Zr85        O115   2.371   1_455  S
Zr85        O117   2.372   1_455  S
O86         H129   0.990       .  S
O87         H128   0.990       .  S
O87         H132   0.990   1_655  S
Zr88         O89   2.435   1_655  S
Zr88         O90   2.434       .  S
Zr88         O92   2.371   1_656  S
Zr88         O91   2.373   1_656  S
Zr88        O116   2.370       .  S
Zr88        O118   2.377       .  S
O89         H130   0.990   1_556  S
O89         H133   0.990       .  S
O90         H123   0.990       .  S
O91        Zr111   2.375   1_455  S
O92        Zr112   2.380   1_455  S
O92         H119   0.967       .  S
O93        Zr105   2.459       .  S
O93          C95   1.291       .  A
O94        Zr112   2.414       .  S
O94          C95   1.285       .  A
C95        C1378   1.482       .  S
O96        Zr108   2.451       .  S
O96          C98   1.290       .  A
O97        Zr111   2.420       .  S
O97          C98   1.286   1_554  A
C98        C1486   1.482       .  S
O99        Zr108   2.452       .  S
O99         C101   1.290       .  A
O100       Zr112   2.421       .  S
O100        C101   1.286   1_554  A
C101       C1339   1.485       .  S
O102       Zr105   2.458       .  S
O102        C104   1.291       .  A
O103       Zr111   2.422       .  S
O103        C104   1.287       .  A
C104       C1450   1.488       .  S
Zr105       O106   2.435       .  S
Zr105       O107   2.436       .  S
Zr105       O113   2.373       .  S
Zr105       O114   2.374       .  S
Zr105       O117   2.375       .  S
Zr105       O115   2.376       .  S
O106        H126   0.990       .  S
O106        H131   0.990       .  S
O107        H127   0.990       .  S
Zr108       O109   2.434   1_556  S
Zr108       O110   2.435       .  S
Zr108       O114   2.374   1_556  S
Zr108       O113   2.370   1_556  S
Zr108       O118   2.377       .  S
Zr108       O116   2.377       .  S
O109        H125   0.990       .  S
O110        H124   0.990       .  S
O110        H134   0.990       .  S
Zr111       O114   2.382       .  S
Zr111       O116   2.382   1_554  S
Zr111       O117   2.385       .  S
Zr112       O113   2.383       .  S
Zr112       O115   2.382       .  S
Zr112       O118   2.378   1_554  S
O113        H121   0.968       .  S
O116        H120   0.966       .  S
O117        H122   0.966       .  S
C135        C136   1.399       .  A
C135        C140   1.399       .  A
C135       C1231   1.481       .  S
C136        C137   1.402       .  A
C136        H141   1.084       .  S
C137        C138   1.403       .  A
C137       C1210   1.483       .  S
C138        C139   1.416       .  A
C138        H142   1.077       .  S
C139        C140   1.408       .  A
C139       C1219   1.513       .  S
C140        H143   1.078       .  S
C144        C145   1.404       .  A
C144        C149   1.404       .  A
C144       C1195   1.485       .  S
C145        C146   1.407       .  A
C145        H150   1.084       .  S
C146        C147   1.404       .  A
C146       C1183   1.483       .  S
C147        C148   1.401       .  A
C147        H151   1.084       .  S
C148        C149   1.405       .  A
C148       C1171   1.480       .  S
C149        H152   1.084       .  S
C153        C154   1.405       .  A
C153        C158   1.403       .  A
C153       C1159   1.487       .  S
C154        C155   1.407       .  A
C154        H159   1.084       .  S
C155        C156   1.404       .  A
C155       C1147   1.487       .  S
C156        C157   1.405       .  A
C156        H160   1.084       .  S
C157        C158   1.407       .  A
C157       C1135   1.486       .  S
C158        H161   1.084       .  S
C162        C163   1.410       .  A
C162        C167   1.407       .  A
C162       C1123   1.495       .  S
C163        C164   1.407       .  A
C163        H168   1.084       .  S
C164        C165   1.401       .  A
C164       C1114   1.486       .  S
C165        C166   1.402       .  A
C165        H169   1.084       .  S
C166        C167   1.406       .  A
C166       C1102   1.483       .  S
C167        H170   1.083       .  S
C171        C172   1.406       .  A
C171        C176   1.405       .  A
C171       C1090   1.489       .  S
C172        C173   1.409       .  A
C172        H177   1.084       .  S
C173        C174   1.404       .  A
C173       C1063   1.487       .  S
C174        C175   1.402       .  A
C174        H178   1.084       .  S
C175        C176   1.404       .  A
C175       C1075   1.483       .  S
C176        H179   1.084       .  S
C180        C181   1.404       .  A
C180        C185   1.404       .  A
C180       C1051   1.487       .  S
C181        C182   1.406       .  A
C181        H186   1.084       .  S
C182        C183   1.403       .  A
C182       C1039   1.479       .  S
C183        C184   1.402       .  A
C183        H187   1.084       .  S
C184        C185   1.405       .  A
C184       C1027   1.483       .  S
C185        H188   1.084       .  S
C189        C190   1.403       .  A
C189        C194   1.406       .  A
C189       C1015   1.488       .  S
C190        C191   1.402       .  A
C190        H195   1.084       .  S
C191        C192   1.402       .  A
C191        C991   1.479       .  S
C192        C193   1.404       .  A
C192        H196   1.084       .  S
C193        C194   1.408       .  A
C193       C1003   1.483       .  S
C194        H197   1.084       .  S
C198        C199   1.405       .  A
C198        C203   1.406       .  A
C198        C982   1.493       .  S
C199        C200   1.408       .  A
C199        H204   1.084       .  S
C200        C201   1.405       .  A
C200        C958   1.489       .  S
C201        C202   1.405       .  A
C201        H205   1.084       .  S
C202        C203   1.407       .  A
C202        C967   1.488       .  S
C203        H206   1.084       .  S
O207       Zr219   2.459       .  S
O207        C209   1.291       .  A
O208       Zr245   2.430       .  S
O208        C209   1.288       .  A
C209       C1126   1.491       .  S
O210       Zr222   2.454       .  S
O210        C212   1.290       .  A
O211       Zr246   2.425   1_565  S
O211        C212   1.287       .  A
C212       C1018   1.487       .  S
O213       Zr222   2.441       .  S
O213        C215   1.286       .  A
O214       Zr245   2.435   1_565  S
O214        C215   1.290       .  A
C215       C1234   1.499       .  S
O216       Zr219   2.457       .  S
O216        C218   1.291       .  A
O217       Zr246   2.427       .  S
O217        C218   1.288       .  A
C218        C979   1.493       .  S
Zr219       O220   2.434       .  S
Zr219       O221   2.436       .  S
Zr219       O225   2.379       .  S
Zr219       O226   2.378       .  S
Zr219       O249   2.377       .  S
Zr219       O251   2.373       .  S
O220        H263   0.990       .  S
O221        H262   0.990       .  S
O221        H266   0.990       .  S
Zr222       O223   2.435       .  S
Zr222       O224   2.434       .  S
Zr222       O226   2.372   1_565  S
Zr222       O225   2.379   1_565  S
Zr222       O250   2.378       .  S
Zr222       O252   2.373       .  S
O223        H264   0.990       .  S
O223        H267   0.990       .  S
O224        H257   0.990       .  S
O225       Zr245   2.381       .  S
O226       Zr246   2.382       .  S
O226        H253   0.969       .  S
O227       Zr239   2.463   1_556  S
O227        C229   1.292       .  A
O228       Zr246   2.417       .  S
O228        C229   1.285   1_554  A
C229       C1087   1.487       .  S
O230       Zr242   2.467   1_556  S
O230        C232   1.293       .  A
O231       Zr245   2.414   1_565  S
O231        C232   1.286   1_554  A
C232       C1198   1.494       .  S
O233       Zr242   2.459   1_556  S
O233        C235   1.291       .  A
O234       Zr246   2.419   1_565  S
O234        C235   1.286   1_554  A
C235       C1054   1.487       .  S
O236       Zr239   2.452   1_556  S
O236        C238   1.290       .  A
O237       Zr245   2.430       .  S
O237        C238   1.288   1_554  A
C238       C1162   1.491       .  S
Zr239       O240   2.435   1_554  S
Zr239       O241   2.433       .  S
Zr239       O247   2.373       .  S
Zr239       O248   2.376       .  S
Zr239       O251   2.380       .  S
Zr239       O249   2.376       .  S
O240        H260   0.990       .  S
O240        H265   0.990       .  S
O241        H261   0.990       .  S
Zr242       O243   2.434   1_554  S
Zr242       O244   2.434       .  S
Zr242       O248   2.372   1_565  S
Zr242       O247   2.372   1_565  S
Zr242       O252   2.381       .  S
Zr242       O250   2.372       .  S
O243        H259   0.990       .  S
O244        H258   0.990       .  S
O244        H268   0.990   1_554  S
Zr245       O248   2.383       .  S
Zr245       O250   2.386   1_545  S
Zr245       O251   2.387       .  S
Zr246       O247   2.387       .  S
Zr246       O249   2.381       .  S
Zr246       O252   2.381   1_545  S
O247        H255   0.966   1_554  S
O250        H254   0.965       .  S
O251        H256   0.968       .  S
C269        C270   1.406       .  A
C269        C274   1.404       .  A
C269        C943   1.487       .  S
C270        C271   1.406       .  A
C270        H275   1.084       .  S
C271        C272   1.401       .  A
C271        C931   1.481       .  S
C272        C273   1.403       .  A
C272        H276   1.084       .  S
C273        C274   1.405       .  A
C273        C919   1.481       .  S
C274        H277   1.084       .  S
C278        C279   1.403       .  A
C278        C283   1.403       .  A
C278        C907   1.487       .  S
C279        C280   1.404       .  A
C279        H284   1.084       .  S
C280        C281   1.408       .  A
C280        C895   1.490       .  S
C281        C282   1.409       .  A
C281        H285   1.083       .  S
C282        C283   1.406       .  A
C282        C883   1.487       .  S
C283        H286   1.084       .  S
C287        C288   1.402       .  A
C287        C292   1.402       .  A
C287        C874   1.482       .  S
C288        C289   1.404       .  A
C288        H293   1.084       .  S
C289        C290   1.407       .  A
C289        C850   1.485       .  S
C290        C291   1.406       .  A
C290        H294   1.083       .  S
C291        C292   1.405       .  A
C291        C859   1.482       .  S
C292        H295   1.084       .  S
C296        C297   1.400       .  A
C296        C301   1.400       .  A
C296        C835   1.479       .  S
C297        C298   1.402       .  A
C297        H302   1.084       .  S
C298        C299   1.409       .  A
C298        C823   1.484       .  S
C299        C300   1.411       .  A
C299        H303   1.083       .  S
C300        C301   1.407       .  A
C300        C811   1.494       .  S
C301        H304   1.084       .  S
C305        C306   1.405       .  A
C305        C310   1.402       .  A
C305        C802   1.483       .  S
C306        C307   1.406       .  A
C306        H311   1.084       .  S
C307        C308   1.402       .  A
C307        C775   1.482       .  S
C308        C309   1.402       .  A
C308        H312   1.084       .  S
C309        C310   1.405       .  A
C309        C787   1.479       .  S
C310        H313   1.084       .  S
C314        C315   1.405       .  A
C314        C319   1.406       .  A
C314        C763   1.489       .  S
C315        C316   1.405       .  A
C315        H320   1.084       .  S
C316        C317   1.403       .  A
C316        C754   1.484       .  S
C317        C318   1.401       .  A
C317        H321   1.084       .  S
C318        C319   1.404       .  A
C318        C742   1.480       .  S
C319        H322   1.083       .  S
C323        C324   1.404       .  A
C323        C328   1.402       .  A
C323        C730   1.481       .  S
C324        C325   1.402       .  A
C324        H329   1.084       .  S
C325        C326   1.398       .  A
C325        C703   1.474       .  S
C326        C327   1.400       .  A
C326        H330   1.084       .  S
C327        C328   1.403       .  A
C327        C718   1.473       .  S
C328        H331   1.084       .  S
C332        C333   1.407       .  A
C332        C337   1.404       .  A
C332        C691   1.491       .  S
C333        C334   1.409       .  A
C333        H338   1.083       .  S
C334        C335   1.403       .  A
C334        C667   1.482       .  S
C335        C336   1.402       .  A
C335        H339   1.084       .  S
C336        C337   1.403       .  A
C336        C682   1.482       .  S
C337        H340   1.084       .  S
O341       Zr353   2.459       .  S
O341        C343   1.291       .  A
O342       Zr379   2.423   1_565  S
O342        C343   1.287   1_655  A
C343        C946   1.490       .  S
O344       Zr356   2.455       .  S
O344        C346   1.290       .  A
O345       Zr380   2.423       .  S
O345        C346   1.286   1_655  A
C346        C694   1.487       .  S
O347       Zr356   2.455       .  S
O347        C349   1.289       .  A
O348       Zr379   2.407       .  S
O348        C349   1.285   1_655  A
C349        C838   1.491       .  S
O350       Zr353   2.442       .  S
O350        C352   1.288       .  A
O351       Zr380   2.413   1_565  S
O351        C352   1.285   1_655  A
C352        C727   1.477       .  S
Zr353       O354   2.435       .  S
Zr353       O355   2.433       .  S
Zr353       O359   2.369   1_565  S
Zr353       O360   2.378   1_565  S
Zr353       O383   2.373   1_455  S
Zr353       O385   2.375   1_455  S
O354        H397   0.990       .  S
O355        H396   0.989   1_455  S
O355        H400   0.990       .  S
Zr356       O357   2.435       .  S
Zr356       O358   2.434       .  S
Zr356       O360   2.375       .  S
Zr356       O359   2.376       .  S
Zr356       O384   2.372   1_455  S
Zr356       O386   2.377   1_455  S
O357        H398   0.990       .  S
O357        H401   0.990       .  S
O358        H391   0.990   1_455  S
O359       Zr379   2.377   1_455  S
O360       Zr380   2.384   1_455  S
O360        H387   0.961       .  S
O361       Zr373   2.452       .  S
O361        C363   1.290       .  A
O362       Zr380   2.417   1_565  S
O362        C363   1.286       .  A
C363        C766   1.483       .  S
O364       Zr376   2.451       .  S
O364        C366   1.290       .  A
O365       Zr379   2.416       .  S
O365        C366   1.285       .  A
C366        C871   1.484       .  S
O367       Zr376   2.460       .  S
O367        C369   1.291       .  A
O368       Zr380   2.418       .  S
O368        C369   1.286       .  A
C369        C799   1.492       .  S
O370       Zr373   2.448       .  S
O370        C372   1.289       .  A
O371       Zr379   2.422   1_565  S
O371        C372   1.286       .  A
C372        C910   1.484       .  S
Zr373       O374   2.435       .  S
Zr373       O375   2.433       .  S
Zr373       O381   2.373   1_565  S
Zr373       O382   2.372   1_565  S
Zr373       O385   2.378       .  S
Zr373       O383   2.371       .  S
O374        H394   0.990       .  S
O374        H399   0.990       .  S
O375        H395   0.990       .  S
Zr376       O377   2.434       .  S
Zr376       O378   2.434       .  S
Zr376       O382   2.376       .  S
Zr376       O381   2.374       .  S
Zr376       O386   2.376       .  S
Zr376       O384   2.375       .  S
O377        H393   0.990       .  S
O378        H392   0.990       .  S
O378        H402   0.990       .  S
Zr379       O382   2.377       .  S
Zr379       O384   2.384       .  S
Zr379       O385   2.380   1_545  S
Zr380       O381   2.380       .  S
Zr380       O383   2.377   1_545  S
Zr380       O386   2.378       .  S
O381        H389   0.962       .  S
O384        H388   0.966       .  S
O385        H390   0.965       .  S
C403        C404   1.395       .  A
C403        C408   1.413       .  A
C403       C1354   1.479       .  S
C404        C405   1.395       .  A
C404        H423   1.086       .  S
C405        C406   1.412       .  A
C405       C1246   1.477   1_655  S
C406        C407   1.419       .  A
C406        C413   1.406   1_655  A
C407        C408   1.420       .  A
C407        C412   1.418       .  A
C408        C409   1.405       .  A
C409        C410   1.394       .  A
C409        H419   1.083       .  S
C410        C411   1.405       .  A
C410        H420   1.083       .  S
C411        C412   1.420       .  A
C411        C418   1.413       .  A
C412        C415   1.421       .  A
C413        C414   1.394       .  A
C413        H421   1.083       .  S
C414        C415   1.405   1_455  A
C414        H422   1.083       .  S
C415        C416   1.413       .  A
C416        C417   1.394       .  A
C416        C670   1.479   1_655  S
C417        C418   1.394       .  A
C417        H424   1.086       .  S
C418        C778   1.478       .  S
C425        C426   1.398       .  A
C425        C430   1.414       .  A
C425        C955   1.484       .  S
C426        C427   1.398   1_545  A
C426        H445   1.086       .  S
C427        C428   1.411       .  A
C427        C994   1.480       .  S
C428        C429   1.419   1_565  A
C428        C435   1.406       .  A
C429        C430   1.421       .  A
C429        C434   1.418       .  A
C430        C431   1.405       .  A
C431        C432   1.394       .  A
C431        H441   1.083       .  S
C432        C433   1.405       .  A
C432        H442   1.083       .  S
C433        C434   1.420       .  A
C433        C440   1.412       .  A
C434        C437   1.420   1_545  A
C435        C436   1.393       .  A
C435        H443   1.083       .  S
C436        C437   1.405       .  A
C436        H444   1.083       .  S
C437        C438   1.412       .  A
C438        C439   1.393   1_565  A
C438        C706   1.475       .  S
C439        C440   1.393       .  A
C439        H446   1.086       .  S
C440        C679   1.475       .  S
C447        C448   1.395       .  A
C447        C452   1.416       .  A
C447       C1279   1.482   1_554  S
C448        C449   1.394       .  A
C448        H467   1.086       .  S
C449        C450   1.412       .  A
C449       C1258   1.477       .  S
C450        C451   1.420       .  A
C450        C457   1.406       .  A
C451        C452   1.422       .  A
C451        C456   1.420       .  A
C452        C453   1.405   1_554  A
C453        C454   1.397       .  A
C453        H463   1.083       .  S
C454        C455   1.406   1_556  A
C454        H464   1.083       .  S
C455        C456   1.421       .  A
C455        C462   1.414       .  A
C456        C459   1.423       .  A
C457        C458   1.394       .  A
C457        H465   1.083       .  S
C458        C459   1.404       .  A
C458        H466   1.083       .  S
C459        C460   1.413       .  A
C460        C461   1.394       .  A
C460        C970   1.482       .  S
C461        C462   1.395       .  A
C461        H468   1.086       .  S
C462       C1066   1.480   1_554  S
C469        C470   1.394       .  A
C469        C474   1.414       .  A
C469       C1111   1.482       .  S
C470        C471   1.395   1_545  A
C470        H489   1.086       .  S
C471        C472   1.413       .  A
C471       C1207   1.477       .  S
C472        C473   1.420   1_565  A
C472        C479   1.406       .  A
C473        C474   1.422       .  A
C473        C478   1.419       .  A
C474        C475   1.404       .  A
C475        C476   1.394       .  A
C475        H485   1.083       .  S
C476        C477   1.406       .  A
C476        H486   1.083       .  S
C477        C478   1.419       .  A
C477        C484   1.412       .  A
C478        C481   1.422   1_545  A
C479        C480   1.395       .  A
C479        H487   1.083       .  S
C480        C481   1.405       .  A
C480        H488   1.083       .  S
C481        C482   1.415       .  A
C482        C483   1.395   1_565  A
C482        C739   1.480       .  S
C483        C484   1.394       .  A
C483        H490   1.086       .  S
C484        C790   1.477       .  S
C491        C492   1.395       .  A
C491        C496   1.414       .  A
C491       C1390   1.482   1_655  S
C492        C493   1.396       .  A
C492        H511   1.086       .  S
C493        C494   1.413       .  A
C493       C1423   1.481       .  S
C494        C495   1.420       .  A
C494        C501   1.406       .  A
C495        C496   1.422       .  A
C495        C500   1.418       .  A
C496        C497   1.405   1_655  A
C497        C498   1.395       .  A
C497        H507   1.083       .  S
C498        C499   1.406   1_455  A
C498        H508   1.083       .  S
C499        C500   1.419       .  A
C499        C506   1.412       .  A
C500        C503   1.422       .  A
C501        C502   1.394       .  A
C501        H509   1.083       .  S
C502        C503   1.405       .  A
C502        H510   1.083       .  S
C503        C504   1.414       .  A
C504        C505   1.393       .  A
C504        C751   1.480       .  S
C505        C506   1.394       .  A
C505        H512   1.086       .  S
C506        C715   1.474   1_655  S
C513        C514   1.395   1_565  A
C513        C518   1.412       .  A
C513       C1030   1.480       .  S
C514        C515   1.396       .  A
C514        H533   1.086       .  S
C515        C516   1.414       .  A
C515       C1078   1.481       .  S
C516        C517   1.420       .  A
C516        C523   1.406       .  A
C517        C518   1.421   1_545  A
C517        C522   1.419       .  A
C518        C519   1.405       .  A
C519        C520   1.393       .  A
C519        H529   1.083       .  S
C520        C521   1.405       .  A
C520        H530   1.083       .  S
C521        C522   1.419   1_565  A
C521        C528   1.410       .  A
C522        C525   1.421       .  A
C523        C524   1.396       .  A
C523        H531   1.083       .  S
C524        C525   1.405       .  A
C524        H532   1.083       .  S
C525        C526   1.415       .  A
C526        C527   1.396       .  A
C526        C826   1.483       .  S
C527        C528   1.397   1_545  A
C527        H534   1.086       .  S
C528        C922   1.476       .  S
C535        C536   1.394       .  A
C535        C540   1.414       .  A
C535       C1330   1.480       .  S
C536        C537   1.394       .  A
C536        H555   1.086       .  S
C537        C538   1.412       .  A
C537       C1294   1.477   1_655  S
C538        C539   1.420       .  A
C538        C545   1.405   1_655  A
C539        C540   1.421       .  A
C539        C544   1.418       .  A
C540        C541   1.405       .  A
C541        C542   1.394       .  A
C541        H551   1.083       .  S
C542        C543   1.406       .  A
C542        H552   1.083       .  S
C543        C544   1.419       .  A
C543        C550   1.412       .  A
C544        C547   1.421       .  A
C545        C546   1.394       .  A
C545        H553   1.083       .  S
C546        C547   1.405   1_455  A
C546        H554   1.083       .  S
C547        C548   1.414       .  A
C548        C549   1.396       .  A
C548        C814   1.484   1_655  S
C549        C550   1.397       .  A
C549        H556   1.086       .  S
C550        C847   1.478       .  S
C557        C558   1.394       .  A
C557        C562   1.414       .  A
C557       C1498   1.481   1_554  S
C558        C559   1.394       .  A
C558        H577   1.086       .  S
C559        C560   1.413       .  A
C559       C1399   1.477       .  S
C560        C561   1.420       .  A
C560        C567   1.406       .  A
C561        C562   1.422       .  A
C561        C566   1.419       .  A
C562        C563   1.405   1_554  A
C563        C564   1.394       .  A
C563        H573   1.083       .  S
C564        C565   1.406   1_556  A
C564        H574   1.083       .  S
C565        C566   1.420       .  A
C565        C572   1.412       .  A
C566        C569   1.422       .  A
C567        C568   1.395       .  A
C567        H575   1.083       .  S
C568        C569   1.405       .  A
C568        H576   1.083       .  S
C569        C570   1.415       .  A
C570        C571   1.394       .  A
C570       C1006   1.481       .  S
C571        C572   1.395       .  A
C571        H578   1.086       .  S
C572       C1042   1.477   1_554  S
C579        C580   1.397       .  A
C579        C584   1.414       .  A
C579       C1318   1.482   1_554  S
C580        C581   1.397       .  A
C580        H599   1.086       .  S
C581        C582   1.414       .  A
C581       C1366   1.482       .  S
C582        C583   1.421       .  A
C582        C589   1.406       .  A
C583        C584   1.421       .  A
C583        C588   1.420       .  A
C584        C585   1.406   1_554  A
C585        C586   1.395       .  A
C585        H595   1.083       .  S
C586        C587   1.405   1_556  A
C586        H596   1.083       .  S
C587        C588   1.422       .  A
C587        C594   1.414       .  A
C588        C591   1.421       .  A
C589        C590   1.395       .  A
C589        H597   1.083       .  S
C590        C591   1.405       .  A
C590        H598   1.083       .  S
C591        C592   1.414       .  A
C592        C593   1.393       .  A
C592       C1099   1.480       .  S
C593        C594   1.395       .  A
C593        H600   1.086       .  S
C594       C1138   1.480   1_554  S
C601        C602   1.394       .  A
C601        C606   1.416       .  A
C601       C1510   1.481   1_655  S
C602        C603   1.394       .  A
C602        H621   1.086       .  S
C603        C604   1.413       .  A
C603       C1462   1.478       .  S
C604        C605   1.421       .  A
C604        C611   1.405       .  A
C605        C606   1.422       .  A
C605        C610   1.421       .  A
C606        C607   1.405   1_655  A
C607        C608   1.397       .  A
C607        H617   1.083       .  S
C608        C609   1.407   1_455  A
C608        H618   1.083       .  S
C609        C610   1.421       .  A
C609        C616   1.416       .  A
C610        C613   1.422       .  A
C611        C612   1.394       .  A
C611        H619   1.083       .  S
C612        C613   1.405       .  A
C612        H620   1.083       .  S
C613        C614   1.415       .  A
C614        C615   1.396       .  A
C614        C886   1.484       .  S
C615        C616   1.397       .  A
C615        H622   1.086       .  S
C616        C934   1.482   1_655  S
C623        C624   1.395       .  A
C623        C628   1.417       .  A
C623       C1150   1.485       .  S
C624        C625   1.395   1_545  A
C624        H643   1.086       .  S
C625        C626   1.412       .  A
C625       C1186   1.478       .  S
C626        C627   1.419   1_565  A
C626        C633   1.406       .  A
C627        C628   1.424       .  A
C627        C632   1.420       .  A
C628        C629   1.404       .  A
C629        C630   1.396       .  A
C629        H639   1.083       .  S
C630        C631   1.407       .  A
C630        H640   1.083       .  S
C631        C632   1.419       .  A
C631        C638   1.413       .  A
C632        C635   1.423   1_545  A
C633        C634   1.394       .  A
C633        H641   1.083       .  S
C634        C635   1.404       .  A
C634        H642   1.083       .  S
C635        C636   1.415       .  A
C636        C637   1.396   1_565  A
C636        C898   1.486       .  S
C637        C638   1.398       .  A
C637        H644   1.086       .  S
C638        C862   1.478       .  S
C645        C646   1.397       .  A
C645        C650   1.414       .  A
C645       C1438   1.482       .  S
C646        C647   1.396       .  A
C646        H665   1.086       .  S
C647        C648   1.413       .  A
C647       C1474   1.478   1_554  S
C648        C649   1.420       .  A
C648        C655   1.406   1_554  A
C649        C650   1.420       .  A
C649        C654   1.418       .  A
C650        C651   1.404       .  A
C651        C652   1.396       .  A
C651        H661   1.083       .  S
C652        C653   1.406       .  A
C652        H662   1.082       .  S
C653        C654   1.424       .  A
C653        C660   1.419       .  A
C654        C657   1.422       .  A
C655        C656   1.394       .  A
C655        H663   1.083       .  S
C656        C657   1.404   1_556  A
C656        H664   1.083       .  S
C657        C658   1.409       .  A
C658        C659   1.390       .  A
C658       C1174   1.483   1_554  S
C659        C660   1.403       .  A
C659        H666   1.086       .  S
C660       C1222   1.497       .  S
C667        C668   1.404       .  A
C667        C672   1.413       .  A
C668        C669   1.398       .  A
C668        H677   1.084       .  S
C669        C670   1.413       .  A
C669        S673   1.806       .  S
C670        C671   1.403       .  A
C671        C672   1.402       .  A
C671        H678   1.084       .  S
C672        S674   1.802       .  S
S673        H676   1.403   1_455  S
S674        H675   1.407       .  S
C679        C680   1.401       .  A
C679        C684   1.410       .  A
C680        C681   1.399       .  A
C680        H689   1.084       .  S
C681        C682   1.415       .  A
C681        S685   1.804       .  S
C682        C683   1.405       .  A
C683        C684   1.397       .  A
C683        H690   1.084       .  S
C684        S686   1.805       .  S
S685        H688   1.406       .  S
S686        H687   1.404       .  S
C691        C692   1.405       .  A
C691        C696   1.416       .  A
C692        C693   1.397       .  A
C692        H701   1.084       .  S
C693        C694   1.415       .  A
C693        S697   1.804       .  S
C694        C695   1.407       .  A
C695        C696   1.406       .  A
C695        H702   1.084       .  S
C696        S698   1.803       .  S
S697        H700   1.408       .  S
S698        H699   1.406       .  S
C703        C704   1.402       .  A
C703        C708   1.411       .  A
C704        C705   1.396       .  A
C704        H713   1.084       .  S
C705        C706   1.411       .  A
C705        S709   1.805       .  S
C706        C707   1.402       .  A
C707        C708   1.399       .  A
C707        H714   1.084       .  S
C708        S710   1.803       .  S
S709        H712   1.404       .  S
S710        H711   1.407       .  S
C715        C716   1.402       .  A
C715        C720   1.410       .  A
C716        C717   1.399       .  A
C716        H725   1.084       .  S
C717        C718   1.411       .  A
C717        S721   1.803       .  S
C718        C719   1.402       .  A
C719        C720   1.393       .  A
C719        H726   1.084       .  S
C720        S722   1.803       .  S
S721        H724   1.407       .  S
S722        H723   1.404       .  S
C727        C728   1.404       .  A
C727        C732   1.414       .  A
C728        C729   1.398       .  A
C728        H737   1.084   1_455  S
C729        C730   1.416       .  A
C729        S733   1.804   1_455  S
C730        C731   1.403       .  A
C731        C732   1.397       .  A
C731        H738   1.084       .  S
C732        S734   1.802       .  S
S733        H736   1.407   1_655  S
S734        H735   1.407       .  S
C739        C740   1.405       .  A
C739        C744   1.411       .  A
C740        C741   1.406       .  A
C740        H749   1.083       .  S
C741        C742   1.409       .  A
C741        S745   1.805       .  S
C742        C743   1.403       .  A
C743        C744   1.396       .  A
C743        H750   1.084       .  S
C744        S746   1.803       .  S
S745        H748   1.407       .  S
S746        H747   1.404       .  S
C751        C752   1.404       .  A
C751        C756   1.412       .  A
C752        C753   1.402       .  A
C752        H761   1.084       .  S
C753        C754   1.415       .  A
C753        S757   1.804       .  S
C754        C755   1.404       .  A
C755        C756   1.396       .  A
C755        H762   1.084       .  S
C756        S758   1.804       .  S
S757        H760   1.406       .  S
S758        H759   1.401       .  S
C763        C764   1.405       .  A
C763        C768   1.417       .  A
C764        C765   1.401       .  A
C764        H773   1.084       .  S
C765        C766   1.414       .  A
C765        S769   1.802       .  S
C766        C767   1.404       .  A
C767        C768   1.399       .  A
C767        H774   1.084       .  S
C768        S770   1.805       .  S
S769        H772   1.408       .  S
S770        H771   1.407       .  S
C775        C776   1.404       .  A
C775        C780   1.412       .  A
C776        C777   1.396       .  A
C776        H785   1.084       .  S
C777        C778   1.411       .  A
C777        S781   1.805       .  S
C778        C779   1.403       .  A
C779        C780   1.405       .  A
C779        H786   1.083       .  S
C780        S782   1.806       .  S
S781        H784   1.403       .  S
S782        H783   1.407       .  S
C787        C788   1.404       .  A
C787        C792   1.413       .  A
C788        C789   1.396       .  A
C788        H797   1.084       .  S
C789        C790   1.410       .  A
C789        S793   1.804       .  S
C790        C791   1.403       .  A
C791        C792   1.401       .  A
C791        H798   1.084       .  S
C792        S794   1.803       .  S
S793        H796   1.404       .  S
S794        H795   1.406       .  S
C799        C800   1.408       .  A
C799        C804   1.419       .  A
C800        C801   1.402       .  A
C800        H809   1.083       .  S
C801        C802   1.410       .  A
C801        S805   1.809       .  S
C802        C803   1.402       .  A
C803        C804   1.404       .  A
C803        H810   1.084       .  S
C804        S806   1.801       .  S
S805        H808   1.407       .  S
S806        H807   1.407       .  S
C811        C812   1.409       .  A
C811        C816   1.418       .  A
C812        C813   1.401       .  A
C812        H821   1.084       .  S
C813        C814   1.410       .  A
C813        S817   1.803       .  S
C814        C815   1.401       .  A
C815        C816   1.399       .  A
C815        H822   1.084       .  S
C816        S818   1.797       .  S
S817        H820   1.406       .  S
S818        H819   1.407       .  S
C823        C824   1.405       .  A
C823        C828   1.411       .  A
C824        C825   1.403       .  A
C824        H833   1.084       .  S
C825        C826   1.412       .  A
C825        S829   1.804       .  S
C826        C827   1.402       .  A
C827        C828   1.402       .  A
C827        H834   1.083       .  S
C828        S830   1.804       .  S
S829        H832   1.404       .  S
S830        H831   1.406       .  S
C835        C836   1.402       .  A
C835        C840   1.410       .  A
C836        C837   1.402       .  A
C836        H845   1.084       .  S
C837        C838   1.419       .  A
C837        S841   1.799       .  S
C838        C839   1.410       .  A
C839        C840   1.397       .  A
C839        H846   1.083       .  S
C840        S842   1.804       .  S
S841        H844   1.408       .  S
S842        H843   1.406       .  S
C847        C848   1.399       .  A
C847        C852   1.409       .  A
C848        C849   1.395       .  A
C848        H857   1.085       .  S
C849        C850   1.415       .  A
C849        S853   1.797       .  S
C850        C851   1.407       .  A
C851        C852   1.400       .  A
C851        H858   1.084       .  S
C852        S854   1.802       .  S
S853        H856   1.407       .  S
S854        H855   1.407       .  S
C859        C860   1.405       .  A
C859        C864   1.415       .  A
C860        C861   1.401       .  A
C860        H869   1.084       .  S
C861        C862   1.409       .  A
C861        S865   1.802       .  S
C862        C863   1.400       .  A
C863        C864   1.396       .  A
C863        H870   1.084       .  S
C864        S866   1.799       .  S
S865        H868   1.406       .  S
S866        H867   1.406       .  S
C871        C872   1.406       .  A
C871        C876   1.417       .  A
C872        C873   1.402       .  A
C872        H881   1.084       .  S
C873        C874   1.413       .  A
C873        S877   1.804       .  S
C874        C875   1.402       .  A
C875        C876   1.397       .  A
C875        H882   1.084       .  S
C876        S878   1.802       .  S
S877        H880   1.406       .  S
S878        H879   1.407       .  S
C883        C884   1.404       .  A
C883        C888   1.416       .  A
C884        C885   1.399       .  A
C884        H893   1.084       .  S
C885        C886   1.412       .  A
C885        S889   1.805       .  S
C886        C887   1.403       .  A
C887        C888   1.403       .  A
C887        H894   1.084       .  S
C888        S890   1.804       .  S
S889        H892   1.403       .  S
S890        H891   1.406       .  S
C895        C896   1.407       .  A
C895        C900   1.417       .  A
C896        C897   1.403       .  A
C896        H905   1.084       .  S
C897        C898   1.411       .  A
C897        S901   1.803       .  S
C898        C899   1.402       .  A
C899        C900   1.401       .  A
C899        H906   1.084       .  S
C900        S902   1.804       .  S
S901        H904   1.406       .  S
S902        H903   1.407       .  S
C907        C908   1.404       .  A
C907        C912   1.415       .  A
C908        C909   1.397       .  A
C908        H917   1.084       .  S
C909        C910   1.415       .  A
C909        S913   1.803   1_565  S
C910        C911   1.407       .  A
C911        C912   1.403       .  A
C911        H918   1.084       .  S
C912        S914   1.804       .  S
S913        H916   1.407       .  S
S914        H915   1.406       .  S
C919        C920   1.406       .  A
C919        C924   1.417       .  A
C920        C921   1.401       .  A
C920        H929   1.084       .  S
C921        C922   1.409       .  A
C921        S925   1.802       .  S
C922        C923   1.398       .  A
C923        C924   1.395       .  A
C923        H930   1.084       .  S
C924        S926   1.804       .  S
S925        H928   1.407       .  S
S926        H927   1.407       .  S
C931        C932   1.404       .  A
C931        C936   1.413       .  A
C932        C933   1.398       .  A
C932        H941   1.084       .  S
C933        C934   1.412       .  A
C933        S937   1.804       .  S
C934        C935   1.404       .  A
C935        C936   1.403       .  A
C935        H942   1.084       .  S
C936        S938   1.803       .  S
S937        H940   1.404   1_455  S
S938        H939   1.406       .  S
C943        C944   1.403       .  A
C943        C948   1.416       .  A
C944        C945   1.402       .  A
C944        H953   1.084       .  S
C945        C946   1.416       .  A
C945        S949   1.799       .  S
C946        C947   1.407       .  A
C947        C948   1.401       .  A
C947        H954   1.083       .  S
C948        S950   1.805       .  S
S949        H952   1.407       .  S
S950        H951   1.406       .  S
C955        C956   1.403       .  A
C955        C960   1.413       .  A
C956        C957   1.402       .  A
C956        H965   1.084       .  S
C957        C958   1.414       .  A
C957        S961   1.803       .  S
C958        C959   1.406       .  A
C959        C960   1.399       .  A
C959        H966   1.083       .  S
C960        S962   1.805       .  S
S961        H964   1.407       .  S
S962        H963   1.405       .  S
C967        C968   1.405       .  A
C967        C972   1.417       .  A
C968        C969   1.401       .  A
C968        H977   1.084       .  S
C969        C970   1.411       .  A
C969        S973   1.803       .  S
C970        C971   1.401       .  A
C971        C972   1.404       .  A
C971        H978   1.083       .  S
C972        S974   1.808       .  S
S973        H976   1.406       .  S
S974        H975   1.407       .  S
C979        C980   1.407       .  A
C979        C984   1.418       .  A
C980        C981   1.402       .  A
C980        H989   1.084       .  S
C981        C982   1.416       .  A
C981        S985   1.804       .  S
C982        C983   1.405       .  A
C983        C984   1.404       .  A
C983        H990   1.084       .  S
C984        S986   1.802       .  S
S985        H988   1.407       .  S
S986        H987   1.408       .  S
C991        C992   1.405       .  A
C991        C996   1.414       .  A
C992        C993   1.401       .  A
C992       H1001   1.084       .  S
C993        C994   1.410       .  A
C993        S997   1.802       .  S
C994        C995   1.401       .  A
C995        C996   1.397       .  A
C995       H1002   1.084       .  S
C996        S998   1.804       .  S
S997       H1000   1.405       .  S
S998        H999   1.407       .  S
C1003      C1004   1.405       .  A
C1003      C1008   1.414       .  A
C1004      C1005   1.399       .  A
C1004      H1013   1.084       .  S
C1005      C1006   1.413       .  A
C1005      S1009   1.806       .  S
C1006      C1007   1.402       .  A
C1007      C1008   1.401       .  A
C1007      H1014   1.084       .  S
C1008      S1010   1.804       .  S
S1009      H1012   1.402       .  S
S1010      H1011   1.406       .  S
C1015      C1016   1.404       .  A
C1015      C1020   1.415       .  A
C1016      C1017   1.399       .  A
C1016      H1025   1.084       .  S
C1017      C1018   1.416       .  A
C1017      S1021   1.803   1_565  S
C1018      C1019   1.407       .  A
C1019      C1020   1.405       .  A
C1019      H1026   1.084       .  S
C1020      S1022   1.803       .  S
S1021      H1024   1.408       .  S
S1022      H1023   1.407       .  S
C1027      C1028   1.405       .  A
C1027      C1032   1.417       .  A
C1028      C1029   1.400       .  A
C1028      H1037   1.084       .  S
C1029      C1030   1.410       .  A
C1029      S1033   1.802       .  S
C1030      C1031   1.401       .  A
C1031      C1032   1.399       .  A
C1031      H1038   1.084       .  S
C1032      S1034   1.804       .  S
S1033      H1036   1.406       .  S
S1034      H1035   1.407       .  S
C1039      C1040   1.403       .  A
C1039      C1044   1.413       .  A
C1040      C1041   1.395       .  A
C1040      H1049   1.084       .  S
C1041      C1042   1.411       .  A
C1041      S1045   1.805       .  S
C1042      C1043   1.403       .  A
C1043      C1044   1.402       .  A
C1043      H1050   1.084       .  S
C1044      S1046   1.802       .  S
S1045      H1048   1.404   1_556  S
S1046      H1047   1.407       .  S
C1051      C1052   1.404       .  A
C1051      C1056   1.416       .  A
C1052      C1053   1.402       .  A
C1052      H1061   1.084       .  S
C1053      C1054   1.416       .  A
C1053      S1057   1.802       .  S
C1054      C1055   1.406       .  A
C1055      C1056   1.401       .  A
C1055      H1062   1.084   1_556  S
C1056      S1058   1.805   1_556  S
S1057      H1060   1.408       .  S
S1058      H1059   1.406   1_554  S
C1063      C1064   1.405       .  A
C1063      C1068   1.419       .  A
C1064      C1065   1.400       .  A
C1064      H1073   1.084       .  S
C1065      C1066   1.410       .  A
C1065      S1069   1.804       .  S
C1066      C1067   1.400       .  A
C1067      C1068   1.400       .  A
C1067      H1074   1.084       .  S
C1068      S1070   1.805       .  S
S1069      H1072   1.406   1_556  S
S1070      H1071   1.406       .  S
C1075      C1076   1.404       .  A
C1075      C1080   1.414       .  A
C1076      C1077   1.397       .  A
C1076      H1085   1.084       .  S
C1077      C1078   1.411       .  A
C1077      S1081   1.803       .  S
C1078      C1079   1.403       .  A
C1079      C1080   1.403       .  A
C1079      H1086   1.084       .  S
C1080      S1082   1.803       .  S
S1081      H1084   1.404       .  S
S1082      H1083   1.406       .  S
C1087      C1088   1.405       .  A
C1087      C1092   1.416       .  A
C1088      C1089   1.404       .  A
C1088      H1097   1.084       .  S
C1089      C1090   1.415       .  A
C1089      S1093   1.803       .  S
C1090      C1091   1.404       .  A
C1091      C1092   1.403       .  A
C1091      H1098   1.083       .  S
C1092      S1094   1.810       .  S
S1093      H1096   1.406       .  S
S1094      H1095   1.407       .  S
C1099      C1100   1.404       .  A
C1099      C1104   1.411       .  A
C1100      C1101   1.403       .  A
C1100      H1109   1.084       .  S
C1101      C1102   1.415       .  A
C1101      S1105   1.803       .  S
C1102      C1103   1.403       .  A
C1103      C1104   1.396       .  A
C1103      H1110   1.084       .  S
C1104      S1106   1.804       .  S
S1105      H1108   1.406       .  S
S1106      H1107   1.403       .  S
C1111      C1112   1.404       .  A
C1111      C1116   1.410       .  A
C1112      C1113   1.403       .  A
C1112      H1121   1.084       .  S
C1113      C1114   1.414       .  A
C1113      S1117   1.803       .  S
C1114      C1115   1.405       .  A
C1115      C1116   1.398       .  A
C1115      H1122   1.084       .  S
C1116      S1118   1.803       .  S
S1117      H1120   1.406       .  S
S1118      H1119   1.405       .  S
C1123      C1124   1.405       .  A
C1123      C1128   1.417       .  A
C1124      C1125   1.400       .  A
C1124      H1133   1.084       .  S
C1125      C1126   1.415       .  A
C1125      S1129   1.797       .  S
C1126      C1127   1.406       .  A
C1127      C1128   1.405       .  A
C1127      H1134   1.084       .  S
C1128      S1130   1.804       .  S
S1129      H1132   1.407       .  S
S1130      H1131   1.406       .  S
C1135      C1136   1.406       .  A
C1135      C1140   1.415       .  A
C1136      C1137   1.399       .  A
C1136      H1145   1.084       .  S
C1137      C1138   1.413       .  A
C1137      S1141   1.807       .  S
C1138      C1139   1.403       .  A
C1139      C1140   1.400       .  A
C1139      H1146   1.084       .  S
C1140      S1142   1.804       .  S
S1141      H1144   1.403   1_556  S
S1142      H1143   1.406       .  S
C1147      C1148   1.406       .  A
C1147      C1152   1.414       .  A
C1148      C1149   1.404       .  A
C1148      H1157   1.083       .  S
C1149      C1150   1.410       .  A
C1149      S1153   1.806       .  S
C1150      C1151   1.403       .  A
C1151      C1152   1.402       .  A
C1151      H1158   1.084       .  S
C1152      S1154   1.803       .  S
S1153      H1156   1.407       .  S
S1154      H1155   1.407       .  S
C1159      C1160   1.403       .  A
C1159      C1164   1.414       .  A
C1160      C1161   1.403       .  A
C1160      H1169   1.084       .  S
C1161      C1162   1.419       .  A
C1161      S1165   1.802       .  S
C1162      C1163   1.407       .  A
C1163      C1164   1.401       .  A
C1163      H1170   1.083       .  S
C1164      S1166   1.804       .  S
S1165      H1168   1.408   1_556  S
S1166      H1167   1.406       .  S
C1171      C1172   1.403       .  A
C1171      C1176   1.415       .  A
C1172      C1173   1.405       .  A
C1172      H1181   1.083       .  S
C1173      C1174   1.410       .  A
C1173      S1177   1.806       .  S
C1174      C1175   1.402       .  A
C1175      C1176   1.399       .  A
C1175      H1182   1.084       .  S
C1176      S1178   1.805       .  S
S1177      H1180   1.407       .  S
S1178      H1179   1.406       .  S
C1183      C1184   1.404       .  A
C1183      C1188   1.415       .  A
C1184      C1185   1.396       .  A
C1184      H1193   1.084       .  S
C1185      C1186   1.411       .  A
C1185      S1189   1.804       .  S
C1186      C1187   1.402       .  A
C1187      C1188   1.402       .  A
C1187      H1194   1.084       .  S
C1188      S1190   1.804       .  S
S1189      H1192   1.403       .  S
S1190      H1191   1.406       .  S
C1195      C1196   1.403       .  A
C1195      C1200   1.412       .  A
C1196      C1197   1.405       .  A
C1196      H1205   1.084       .  S
C1197      C1198   1.418       .  A
C1197      S1201   1.801       .  S
C1198      C1199   1.409       .  A
C1199      C1200   1.400       .  A
C1199      H1206   1.083       .  S
C1200      S1202   1.805       .  S
S1201      H1204   1.407   1_556  S
S1202      H1203   1.406       .  S
C1207      C1208   1.402       .  A
C1207      C1212   1.409       .  A
C1208      C1209   1.401       .  A
C1208      H1217   1.084       .  S
C1209      C1210   1.417       .  A
C1209      S1213   1.804       .  S
C1210      C1211   1.404       .  A
C1211      C1212   1.397       .  A
C1211      H1218   1.084       .  S
C1212      S1214   1.804       .  S
S1213      H1216   1.406       .  S
S1214      H1215   1.404       .  S
C1219      C1220   1.416       .  A
C1219      C1224   1.428       .  A
C1220      C1221   1.402       .  A
C1220      H1229   1.079       .  S
C1221      C1222   1.415       .  A
C1221      S1225   1.805       .  S
C1222      C1223   1.403       .  A
C1223      C1224   1.393       .  A
C1223      H1230   1.085       .  S
C1224      S1226   1.808       .  S
S1225      H1228   1.405       .  S
S1226      H1227   1.406       .  S
C1231      C1232   1.401       .  A
C1231      C1236   1.413       .  A
C1232      C1233   1.404       .  A
C1232      H1241   1.084       .  S
C1233      C1234   1.424       .  A
C1233      S1237   1.801       .  S
C1234      C1235   1.406       .  A
C1235      C1236   1.395       .  A
C1235      H1242   1.082       .  S
C1236      S1238   1.807       .  S
S1237      H1240   1.408       .  S
S1238      H1239   1.404       .  S
C1243      C1244   1.405       .  A
C1243      C1248   1.414       .  A
C1244      C1245   1.399       .  A
C1244      H1253   1.084       .  S
C1245      C1246   1.409       .  A
C1245      S1249   1.803       .  S
C1246      C1247   1.401       .  A
C1247      C1248   1.400       .  A
C1247      H1254   1.083       .  S
C1248      S1250   1.809       .  S
S1249      H1252   1.406       .  S
S1250      H1251   1.406       .  S
C1255      C1256   1.403       .  A
C1255      C1260   1.413       .  A
C1256      C1257   1.396       .  A
C1256      H1265   1.084       .  S
C1257      C1258   1.411       .  A
C1257      S1261   1.805       .  S
C1258      C1259   1.402       .  A
C1259      C1260   1.401       .  A
C1259      H1266   1.084       .  S
C1260      S1262   1.803       .  S
S1261      H1264   1.404       .  S
S1262      H1263   1.406       .  S
C1267      C1268   1.404       .  A
C1267      C1272   1.414       .  A
C1268      C1269   1.398       .  A
C1268      H1277   1.084       .  S
C1269      C1270   1.415       .  A
C1269      S1273   1.803       .  S
C1270      C1271   1.406       .  A
C1271      C1272   1.400       .  A
C1271      H1278   1.084       .  S
C1272      S1274   1.805       .  S
S1273      H1276   1.407       .  S
S1274      H1275   1.406       .  S
C1279      C1280   1.402       .  A
C1279      C1284   1.411       .  A
C1280      C1281   1.404       .  A
C1280      H1289   1.083       .  S
C1281      C1282   1.415       .  A
C1281      S1285   1.809       .  S
C1282      C1283   1.404       .  A
C1283      C1284   1.400       .  A
C1283      H1290   1.084       .  S
C1284      S1286   1.803       .  S
S1285      H1288   1.407       .  S
S1286      H1287   1.405       .  S
C1291      C1292   1.404       .  A
C1291      C1296   1.415       .  A
C1292      C1293   1.396       .  A
C1292      H1301   1.084       .  S
C1293      C1294   1.411       .  A
C1293      S1297   1.804       .  S
C1294      C1295   1.402       .  A
C1295      C1296   1.401       .  A
C1295      H1302   1.084       .  S
C1296      S1298   1.804       .  S
S1297      H1300   1.404       .  S
S1298      H1299   1.406       .  S
C1303      C1304   1.404       .  A
C1303      C1308   1.413       .  A
C1304      C1305   1.398       .  A
C1304      H1313   1.084       .  S
C1305      C1306   1.415       .  A
C1305      S1309   1.804   1_455  S
C1306      C1307   1.407       .  A
C1307      C1308   1.401       .  A
C1307      H1314   1.084       .  S
C1308      S1310   1.804       .  S
S1309      H1312   1.407       .  S
S1310      H1311   1.406       .  S
C1315      C1316   1.402       .  A
C1315      C1320   1.414       .  A
C1316      C1317   1.397       .  A
C1316      H1325   1.084       .  S
C1317      C1318   1.412       .  A
C1317      S1321   1.804   1_556  S
C1318      C1319   1.403       .  A
C1319      C1320   1.403       .  A
C1319      H1326   1.084       .  S
C1320      S1322   1.804       .  S
S1321      H1324   1.405       .  S
S1322      H1323   1.407       .  S
C1327      C1328   1.404       .  A
C1327      C1332   1.412       .  A
C1328      C1329   1.402       .  A
C1328      H1337   1.084       .  S
C1329      C1330   1.412       .  A
C1329      S1333   1.805       .  S
C1330      C1331   1.403       .  A
C1331      C1332   1.401       .  A
C1331      H1338   1.083       .  S
C1332      S1334   1.808       .  S
S1333      H1336   1.402       .  S
S1334      H1335   1.407       .  S
C1339      C1340   1.407       .  A
C1339      C1344   1.416       .  A
C1340      C1341   1.403       .  A
C1340      H1349   1.084       .  S
C1341      C1342   1.413       .  A
C1341      S1345   1.803       .  S
C1342      C1343   1.404       .  A
C1343      C1344   1.398       .  A
C1343      H1350   1.084       .  S
C1344      S1346   1.804   1_556  S
S1345      H1348   1.406       .  S
S1346      H1347   1.407       .  S
C1351      C1352   1.406       .  A
C1351      C1356   1.416       .  A
C1352      C1353   1.400       .  A
C1352      H1361   1.084       .  S
C1353      C1354   1.410       .  A
C1353      S1357   1.804       .  S
C1354      C1355   1.401       .  A
C1355      C1356   1.398       .  A
C1355      H1362   1.084       .  S
C1356      S1358   1.804       .  S
S1357      H1360   1.406       .  S
S1358      H1359   1.407       .  S
C1363      C1364   1.403       .  A
C1363      C1368   1.413       .  A
C1364      C1365   1.399       .  A
C1364      H1373   1.084       .  S
C1365      C1366   1.413       .  A
C1365      S1369   1.805       .  S
C1366      C1367   1.403       .  A
C1367      C1368   1.402       .  A
C1367      H1374   1.084       .  S
C1368      S1370   1.803       .  S
S1369      H1372   1.403       .  S
S1370      H1371   1.406       .  S
C1375      C1376   1.405       .  A
C1375      C1380   1.416       .  A
C1376      C1377   1.398       .  A
C1376      H1385   1.084       .  S
C1377      C1378   1.414       .  A
C1377      S1381   1.804       .  S
C1378      C1379   1.405       .  A
C1379      C1380   1.404       .  A
C1379      H1386   1.084       .  S
C1380      S1382   1.803       .  S
S1381      H1384   1.407       .  S
S1382      H1383   1.406       .  S
C1387      C1388   1.404       .  A
C1387      C1392   1.414       .  A
C1388      C1389   1.400       .  A
C1388      H1397   1.084       .  S
C1389      C1390   1.411       .  A
C1389      S1393   1.803       .  S
C1390      C1391   1.402       .  A
C1391      C1392   1.403       .  A
C1391      H1398   1.083       .  S
C1392      S1394   1.808       .  S
S1393      H1396   1.405       .  S
S1394      H1395   1.407       .  S
C1399      C1400   1.403       .  A
C1399      C1404   1.411       .  A
C1400      C1401   1.402       .  A
C1400      H1409   1.084       .  S
C1401      C1402   1.413       .  A
C1401      S1405   1.803       .  S
C1402      C1403   1.403       .  A
C1403      C1404   1.395       .  A
C1403      H1410   1.084       .  S
C1404      S1406   1.806       .  S
S1405      H1408   1.406       .  S
S1406      H1407   1.404       .  S
C1411      C1412   1.406       .  A
C1411      C1416   1.417       .  A
C1412      C1413   1.397       .  A
C1412      H1421   1.084       .  S
C1413      C1414   1.411       .  A
C1413      S1417   1.799       .  S
C1414      C1415   1.404       .  A
C1415      C1416   1.403       .  A
C1415      H1422   1.084       .  S
C1416      S1418   1.803       .  S
S1417      H1420   1.407       .  S
S1418      H1419   1.406       .  S
C1423      C1424   1.402       .  A
C1423      C1428   1.413       .  A
C1424      C1425   1.400       .  A
C1424      H1433   1.084       .  S
C1425      C1426   1.414       .  A
C1425      S1429   1.803       .  S
C1426      C1427   1.405       .  A
C1427      C1428   1.399       .  A
C1427      H1434   1.084       .  S
C1428      S1430   1.804       .  S
S1429      H1432   1.407       .  S
S1430      H1431   1.402       .  S
C1435      C1436   1.403       .  A
C1435      C1440   1.415       .  A
C1436      C1437   1.397       .  A
C1436      H1445   1.084       .  S
C1437      C1438   1.412       .  A
C1437      S1441   1.804       .  S
C1438      C1439   1.403       .  A
C1439      C1440   1.404       .  A
C1439      H1446   1.084       .  S
C1440      S1442   1.804       .  S
S1441      H1444   1.403       .  S
S1442      H1443   1.406       .  S
C1447      C1448   1.405       .  A
C1447      C1452   1.416       .  A
C1448      C1449   1.402       .  A
C1448      H1457   1.084       .  S
C1449      C1450   1.416       .  A
C1449      S1453   1.803       .  S
C1450      C1451   1.406       .  A
C1451      C1452   1.401       .  A
C1451      H1458   1.084       .  S
C1452      S1454   1.804       .  S
S1453      H1456   1.407       .  S
S1454      H1455   1.407       .  S
C1459      C1460   1.406       .  A
C1459      C1464   1.417       .  A
C1460      C1461   1.401       .  A
C1460      H1469   1.084       .  S
C1461      C1462   1.411       .  A
C1461      S1465   1.804       .  S
C1462      C1463   1.400       .  A
C1463      C1464   1.397       .  A
C1463      H1470   1.084       .  S
C1464      S1466   1.804       .  S
S1465      H1468   1.405       .  S
S1466      H1467   1.407       .  S
C1471      C1472   1.404       .  A
C1471      C1476   1.412       .  A
C1472      C1473   1.399       .  A
C1472      H1481   1.084       .  S
C1473      C1474   1.414       .  A
C1473      S1477   1.807   1_556  S
C1474      C1475   1.402       .  A
C1475      C1476   1.398       .  A
C1475      H1482   1.084       .  S
C1476      S1478   1.803       .  S
S1477      H1480   1.402       .  S
S1478      H1479   1.406       .  S
C1483      C1484   1.402       .  A
C1483      C1488   1.416       .  A
C1484      C1485   1.395       .  A
C1484      H1493   1.084       .  S
C1485      C1486   1.414       .  A
C1485      S1489   1.799       .  S
C1486      C1487   1.405       .  A
C1487      C1488   1.404       .  A
C1487      H1494   1.084       .  S
C1488      S1490   1.803       .  S
S1489      H1492   1.407       .  S
S1490      H1491   1.406       .  S
C1495      C1496   1.403       .  A
C1495      C1500   1.415       .  A
C1496      C1497   1.397       .  A
C1496      H1505   1.084       .  S
C1497      C1498   1.412       .  A
C1497      S1501   1.805       .  S
C1498      C1499   1.403       .  A
C1499      C1500   1.402       .  A
C1499      H1506   1.084       .  S
C1500      S1502   1.804       .  S
S1501      H1504   1.402       .  S
S1502      H1503   1.406       .  S
C1507      C1508   1.403       .  A
C1507      C1512   1.413       .  A
C1508      C1509   1.398       .  A
C1508      H1517   1.084       .  S
C1509      C1510   1.413       .  A
C1509      S1513   1.805       .  S
C1510      C1511   1.403       .  A
C1511      C1512   1.402       .  A
C1511      H1518   1.084       .  S
C1512      S1514   1.803       .  S
S1513      H1516   1.404   1_455  S
S1514      H1515   1.406       .  S
C1519      C1520   1.400       .  A
C1519      C1524   1.408       .  A
C1520      C1521   1.405       .  A
C1520      H1529   1.084       .  S
C1521      C1522   1.425       .  A
C1521      S1525   1.800       .  S
C1522      C1523   1.409       .  A
C1523      C1524   1.396       .  A
C1523      H1530   1.082       .  S
C1524      S1526   1.805       .  S
S1525      H1528   1.407       .  S
S1526      H1527   1.404       .  S
