geometry optimzed in LAMMPS
_audit_creation_date              2020-12-01 
_audit_creation_method            'lammps2cif' 
_symmetry_space_group_name_H-M    'P1' 
_symmetry_Int_Tables_number       1 
_symmetry_cell_setting            triclinic 
loop_ 
_symmetry_equiv_pos_as_xyz 
  x,y,z 
_cell_length_a                    70.65003421 
_cell_length_b                    70.69929906717759 
_cell_length_c                    70.67242318069081 
_cell_angle_alpha                 89.96744794546129 
_cell_angle_beta                  89.87838042159281 
_cell_angle_gamma                 90.00712843554916 
loop_ 
_atom_site_label 
_atom_site_type_symbol 
_atom_site_fract_x 
_atom_site_fract_y 
_atom_site_fract_z 
_atom_site_charge 
O1          O  0.04232815  0.46457277  0.88218358    -0.74400
O2          O  0.03028984  0.49018382  0.83559326    -0.74500
O3          O  0.01054016  0.48005149  0.86717378    -0.74500
O4          O  0.06175914  0.47529318  0.85116504    -0.74600
O5          O  0.05511474  0.44716470  0.83839465    -0.74500
O6          O  0.00328746  0.45282395  0.85296625    -0.74500
O7          O  0.02468471  0.46233538  0.82225156    -0.74400
O8          O  0.03423001  0.43725653  0.86875782    -0.74500
Ni9        Ni  0.03637242  0.47857012  0.85954079     1.25400
Ni10       Ni  0.02898733  0.44894569  0.84513662     1.25400
C11         C  0.04059923  0.44650909  0.88289792     0.87800
C12         C  0.02656998  0.48024681  0.82086140     0.87700
C13         C  0.99855022  0.46720932  0.86291332     0.87700
C14         C  0.06681457  0.46043554  0.84222937     0.87900
O15         O  0.06441500  0.38964406  0.04225739    -0.74400
O16         O  0.03656050  0.34481772  0.03042311    -0.74500
O17         O  0.05100936  0.35982893  0.06216128    -0.74500
O18         O  0.04964473  0.37470775  0.01048533    -0.74600
O19         O  0.07628519  0.35868287  0.00475794    -0.74500
O20         O  0.07861438  0.34534805  0.05729793    -0.74500
O21         O  0.06355565  0.32907818  0.02632431    -0.74400
O22         O  0.09132506  0.37452143  0.03586433    -0.74500
Ni23       Ni  0.04944302  0.36777312  0.03648132     1.25400
Ni24       Ni  0.07840738  0.35129760  0.03083015     1.25400
C25         C  0.08248810  0.38958142  0.04068075     0.87800
C26         C  0.04545382  0.32936882  0.02720674     0.87700
C27         C  0.06510251  0.35035933  0.06834034     0.87700
C28         C  0.06285817  0.36953876  0.99925242     0.87900
O29         O  0.87645757  0.48809728  0.94990546    -0.74400
O30         O  0.83036141  0.49850303  0.97644059    -0.74500
O31         O  0.84561276  0.46784066  0.95990271    -0.74500
O32         O  0.86123560  0.51887239  0.96680234    -0.74600
O33         O  0.84673578  0.52722117  0.94001780    -0.74500
O34         O  0.83261812  0.47545468  0.93219484    -0.74500
O35         O  0.81626446  0.50520432  0.94913698    -0.74400
O36         O  0.86276427  0.49705154  0.92293979    -0.74500
Ni37       Ni  0.85393585  0.49309642  0.96423413     1.25400
Ni38       Ni  0.83910205  0.50159730  0.93510191     1.25400
C39         C  0.87710752  0.49075704  0.93198191     0.87800
C40         C  0.81546662  0.50274443  0.96705637     0.87700
C41         C  0.83657213  0.46320824  0.94495435     0.87700
C42         C  0.85659600  0.53140155  0.95462681     0.87900
O43         O  0.13169022  0.55468196  0.05409643    -0.74400
O44         O  0.17571413  0.54381393  0.02413289    -0.74500
O45         O  0.14689094  0.52316256  0.03895916    -0.74500
O46         O  0.16014015  0.57549684  0.03906056    -0.74600
O47         O  0.17675512  0.57115930  0.06555411    -0.74500
O48         O  0.16377801  0.51848096  0.06519114    -0.74500
O49         O  0.19232007  0.53982287  0.05060612    -0.74400
O50         O  0.14849433  0.54987795  0.08034719    -0.74500
Ni51       Ni  0.15303565  0.54943164  0.03809046     1.25400
Ni52       Ni  0.17096752  0.54466586  0.06633691     1.25400
C53         C  0.13285147  0.55380171  0.07218043     0.87800
C54         C  0.19139015  0.54033554  0.03254469     0.87700
C55         C  0.15274990  0.51231522  0.05220666     0.87700
C56         C  0.17048260  0.58194827  0.05240630     0.87900
O57         O  0.96894463  0.56626132  0.13329668    -0.74400
O58         O  0.98550444  0.53511329  0.17456816    -0.74500
O59         O  0.95198195  0.55074070  0.16382650    -0.74500
O60         O  0.00242370  0.55069372  0.14381192    -0.74600
O61         O  0.00932870  0.57631848  0.16090476    -0.74500
O62         O  0.95874564  0.57681750  0.18025617    -0.74500
O63         O  0.99155976  0.56089072  0.19142725    -0.74400
O64         O  0.97632832  0.59198556  0.14993241    -0.74500
Ni65       Ni  0.97702081  0.54974399  0.15328032     1.25400
Ni66       Ni  0.98427868  0.57738426  0.17123772     1.25400
C67         C  0.96976250  0.58429414  0.13492264     0.87800
C68         C  0.99092094  0.54283519  0.19003041     0.87700
C69         C  0.94701701  0.56402086  0.17511230     0.87700
C70         C  0.01404400  0.56361978  0.14889876     0.87900
O71         O  0.94256299  0.65002873  0.98276457    -0.74400
O72         O  0.97408552  0.69268402  0.99334768    -0.74500
O73         O  0.95957271  0.66364706  0.01380842    -0.74500
O74         O  0.95693254  0.67879917  0.96212912    -0.74600
O75         O  0.93114915  0.69594103  0.96846322    -0.74500
O76         O  0.93400509  0.68096414  0.02048711    -0.74500
O77         O  0.94840639  0.70996305  0.99957988    -0.74400
O78         O  0.91692483  0.66717907  0.98949083    -0.74500
Ni79       Ni  0.95923861  0.67073491  0.98779081     1.25400
Ni80       Ni  0.93173876  0.68920139  0.99474249     1.25400
C81         C  0.92459277  0.65149324  0.98468215     0.87800
C82         C  0.96640225  0.70840607  0.99802367     0.87700
C83         C  0.94686633  0.66922268  0.02546260     0.87700
C84         C  0.94342831  0.68956218  0.95673330     0.87900
O85         O  0.87223796  0.54595817  0.57774123    -0.74400
O86         O  0.82559594  0.54053882  0.55108555    -0.74500
O87         O  0.84443343  0.56973022  0.56689489    -0.74500
O88         O  0.85359700  0.51708858  0.56191413    -0.74600
O89         O  0.83812261  0.51143420  0.58892766    -0.74500
O90         O  0.83006336  0.56464058  0.59459705    -0.74500
O91         O  0.81046852  0.53604041  0.57843389    -0.74400
O92         O  0.85743882  0.53974785  0.60490494    -0.74500
Ni93       Ni  0.84943462  0.54354054  0.56342004     1.25400
Ni94       Ni  0.83339510  0.53781610  0.59268724     1.25400
C95         C  0.87267056  0.54299881  0.59561268     0.87800
C96         C  0.81031650  0.53755688  0.56037695     0.87700
C97         C  0.83607765  0.57589453  0.58170598     0.87700
C98         C  0.84797822  0.50573733  0.57483025     0.87900
O99         O  0.94408610  0.39612572  0.54472643    -0.74400
O100        O  0.97644606  0.35425602  0.53373725    -0.74500
O101        O  0.96148788  0.38287059  0.51312244    -0.74500
O102        O  0.95903089  0.36796184  0.56517556    -0.74600
O103        O  0.93321591  0.35087433  0.55894316    -0.74500
O104        O  0.93685475  0.36438740  0.50635646    -0.74500
O105        O  0.95105795  0.33634825  0.52852689    -0.74400
O106        O  0.91901370  0.37869503  0.53700678    -0.74500
Ni107      Ni  0.96120076  0.37593649  0.53933821     1.25400
Ni108      Ni  0.93415449  0.35692939  0.53242931     1.25400
C109        C  0.92615988  0.39414750  0.54305549     0.87800
C110        C  0.96901075  0.33821680  0.52981501     0.87700
C111        C  0.94963581  0.37617884  0.50116500     0.87700
C112        C  0.94544883  0.35729901  0.57067455     0.87900
O113        O  0.97048798  0.46625679  0.37985967    -0.74400
O114        O  0.98245925  0.49282463  0.33348677    -0.74500
O115        O  0.95157946  0.47576615  0.34826638    -0.74500
O116        O  0.00152882  0.48426176  0.36569845    -0.74600
O117        O  0.01131911  0.45750206  0.35207940    -0.74500
O118        O  0.96025167  0.44809019  0.33581419    -0.74500
O119        O  0.99076302  0.46540916  0.32039666    -0.74400
O120        O  0.98084021  0.43958644  0.36677093    -0.74500
Ni121      Ni  0.97626594  0.48077601  0.35729191     1.25400
Ni122      Ni  0.98619229  0.45171574  0.34325770     1.25400
C123        C  0.97333525  0.44830436  0.38073134     0.87800
C124        C  0.98809675  0.48324898  0.31907806     0.87700
C125        C  0.94750345  0.46041733  0.33973402     0.87700
C126        C  0.01458637  0.47235912  0.36197507     0.87900
O127        O  0.13336299  0.49523806  0.45238455    -0.74400
O128        O  0.17885484  0.50282831  0.48118544    -0.74500
O129        O  0.14970455  0.52500639  0.46960397    -0.74500
O130        O  0.16203588  0.47284802  0.46395055    -0.74600
O131        O  0.17800634  0.47905525  0.43779555    -0.74500
O132        O  0.16548150  0.53176850  0.44306325    -0.74500
O133        O  0.19458306  0.50899496  0.45463126    -0.74400
O134        O  0.14932864  0.50185472  0.42598461    -0.74500
Ni135      Ni  0.15548555  0.49876361  0.46774726     1.25400
Ni136      Ni  0.17244410  0.50567686  0.43944146     1.25400
C137        C  0.13388536  0.49744754  0.43439018     0.87800
C138        C  0.19437107  0.50685107  0.47261404     0.87700
C139        C  0.15504027  0.53687001  0.45702461     0.87700
C140        C  0.17200051  0.46705353  0.45002024     0.87900
O141        O  0.04401205  0.55903713  0.62939615    -0.74400
O142        O  0.03776843  0.52692970  0.67335914    -0.74500
O143        O  0.01470041  0.53953121  0.64524627    -0.74500
O144        O  0.06694056  0.54574832  0.65696706    -0.74600
O145        O  0.06014513  0.57124414  0.67426839    -0.74500
O146        O  0.00748775  0.56474034  0.66282036    -0.74500
O147        O  0.03092303  0.55255021  0.69046876    -0.74400
O148        O  0.03670940  0.58403295  0.64720934    -0.74500
Ni149      Ni  0.04105261  0.54185812  0.65061412     1.25400
Ni150      Ni  0.03352721  0.56898948  0.66932484     1.25400
C151        C  0.04184076  0.57699230  0.63136814     0.87800
C152        C  0.03344783  0.53470704  0.68922286     0.87700
C153        C  0.00252196  0.55112941  0.65191469     0.87700
C154        C  0.07221844  0.55969642  0.66715309     0.87900
O155        O  0.06530153  0.65605952  0.48171823    -0.74400
O156        O  0.03782744  0.70107331  0.49458684    -0.74500
O157        O  0.05545647  0.68771028  0.46315595    -0.74500
O158        O  0.04775666  0.66860427  0.51335182    -0.74600
O159        O  0.07479054  0.68193104  0.52266641    -0.74500
O160        O  0.08213286  0.70169886  0.47240858    -0.74500
O161        O  0.06441832  0.71448015  0.50453226    -0.74400
O162        O  0.09205059  0.66999923  0.49088157    -0.74500
Ni163      Ni  0.05055190  0.67797180  0.48796371     1.25400
Ni164      Ni  0.07921146  0.69264667  0.49800676     1.44600
C165        C  0.08329234  0.65578452  0.48389508     0.87800
C166        C  0.04653079  0.71534125  0.50151364     0.87700
C167        C  0.07052456  0.69700517  0.45927658     0.87700
C168        C  0.06056498  0.67113977  0.52591104     0.87900
O169        O  0.53494712  0.58272903  0.87806757    -0.74400
O170        O  0.52667161  0.55314998  0.83316062    -0.74500
O171        O  0.55720056  0.56962793  0.84959643    -0.74500
O172        O  0.50482502  0.56594969  0.86212623    -0.74600
O173        O  0.49860701  0.59193742  0.84533716    -0.74500
O174        O  0.55156637  0.59646119  0.83393820    -0.74500
O175        O  0.52195021  0.57972162  0.81705978    -0.74400
O176        O  0.52811225  0.60885157  0.86185371    -0.74500
Ni177      Ni  0.53113281  0.56688501  0.85628654     1.25400
Ni178      Ni  0.52486871  0.59514854  0.83892499     1.25400
C179        C  0.53224838  0.60066977  0.87742517     0.87800
C180        C  0.52322930  0.56168921  0.81751804     0.87700
C181        C  0.56302076  0.58368092  0.83979457     0.87700
C182        C  0.49321611  0.57854763  0.85633220     0.87900
O183        O  0.37939354  0.55441818  0.95284671    -0.74400
O184        O  0.33576447  0.54007824  0.98202300    -0.74500
O185        O  0.36803374  0.52231366  0.97050135    -0.74500
O186        O  0.34781674  0.57188576  0.96486127    -0.74600
O187        O  0.33343642  0.56325712  0.93812255    -0.74500
O188        O  0.35317880  0.51293185  0.94429024    -0.74500
O189        O  0.32107184  0.53180543  0.95546162    -0.74400
O190        O  0.36480380  0.54470217  0.92668042    -0.74500
Ni191      Ni  0.35827093  0.54736718  0.96854198     1.25400
Ni192      Ni  0.34257709  0.53772021  0.94024148     1.25400
C193        C  0.37902690  0.55231759  0.93482057     0.87800
C194        C  0.32077186  0.53477663  0.97330661     0.87700
C195        C  0.36440497  0.50963449  0.95815266     0.87700
C196        C  0.33768250  0.57585910  0.95045187     0.87900
O197        O  0.45384007  0.38784329  0.98303908    -0.74400
O198        O  0.47614574  0.34074951  0.99751112    -0.74500
O199        O  0.46377674  0.35619085  0.96467680    -0.74500
O200        O  0.46599504  0.37308979  0.01626401    -0.74600
O201        O  0.43712614  0.36144029  0.02166562    -0.74500
O202        O  0.43535684  0.34364488  0.97046143    -0.74500
O203        O  0.44769783  0.32893425  0.00382086    -0.74400
O204        O  0.42526680  0.37575524  0.98850130    -0.74500
Ni205      Ni  0.46602265  0.36482062  0.99029785     1.25400
Ni206      Ni  0.43538912  0.35192816  0.99633591     1.25400
C207        C  0.43580719  0.38948965  0.98309912     0.87800
C208        C  0.46567117  0.32689569  0.00274176     0.87700
C209        C  0.44886001  0.34764955  0.95900265     0.87700
C210        C  0.45159203  0.37083321  0.02712101     0.87900
O211        O  0.47798502  0.47060655  0.13823319    -0.74400
O212        O  0.49360138  0.49917770  0.18158066    -0.74500
O213        O  0.51152705  0.48327318  0.15164344    -0.74500
O214        O  0.46031160  0.48650900  0.16825918    -0.74600
O215        O  0.46380343  0.45936632  0.18386563    -0.74500
O216        O  0.51550704  0.45673492  0.16830650    -0.74500
O217        O  0.49667587  0.47248818  0.19809242    -0.74400
O218        O  0.48213889  0.44383802  0.15446409    -0.74500
Ni219      Ni  0.48579568  0.48584802  0.15933648     1.25400
Ni220      Ni  0.48974681  0.45716439  0.17678564     1.25400
C221        C  0.47728086  0.45252786  0.13932686     0.87800
C222        C  0.49694617  0.49059518  0.19718056     0.87700
C223        C  0.52189041  0.46948884  0.15713819     0.87700
C224        C  0.45350260  0.47326916  0.17855131     0.87900
O225        O  0.55630708  0.65331447  0.04270110    -0.74400
O226        O  0.52630666  0.69723618  0.03164747    -0.74500
O227        O  0.53747187  0.66638207  0.01218354    -0.74500
O228        O  0.54480723  0.68384039  0.06260552    -0.74600
O229        O  0.57117723  0.69881714  0.05364823    -0.74500
O230        O  0.56307922  0.68225003  0.00263396    -0.74500
O231        O  0.55242251  0.71273268  0.02347426    -0.74400
O232        O  0.58209555  0.66857725  0.03278133    -0.74500
Ni233      Ni  0.54028237  0.67467550  0.03762062     1.25400
Ni234      Ni  0.56810942  0.69117309  0.02779190     1.25400
C235        C  0.57415374  0.65367884  0.03933007     0.87800
C236        C  0.53446621  0.71236960  0.02584308     0.87700
C237        C  0.54904942  0.67129442  0.99917006     0.87700
C238        C  0.55931955  0.69390063  0.06648387     0.87900
O239        O  0.63132731  0.49012267  0.05743087    -0.74400
O240        O  0.67338123  0.50292169  0.02552547    -0.74500
O241        O  0.66040854  0.47118575  0.04210049    -0.74500
O242        O  0.64366235  0.52244943  0.04068194    -0.74600
O243        O  0.66121801  0.52917129  0.06604103    -0.74500
O244        O  0.67730746  0.47750382  0.06799352    -0.74500
O245        O  0.69065372  0.50880949  0.05121404    -0.74400
O246        O  0.64853354  0.49735253  0.08280409    -0.74500
Ni247      Ni  0.65157594  0.49658144  0.04046343     1.25400
Ni248      Ni  0.67008181  0.50356433  0.06786126     1.25400
C249        C  0.63326678  0.49108072  0.07543874     0.87800
C250        C  0.68928247  0.50685787  0.03328032     0.87700
C251        C  0.67112783  0.46582085  0.05561649     0.87700
C252        C  0.64923954  0.53407395  0.05337419     0.87900
O253        O  0.44664391  0.65858337  0.53929456    -0.74400
O254        O  0.47629027  0.70253590  0.52793240    -0.74500
O255        O  0.45765077  0.68950827  0.55877093    -0.74500
O256        O  0.46531820  0.67131613  0.50852670    -0.74600
O257        O  0.43957261  0.68683749  0.49889723    -0.74500
O258        O  0.43123243  0.70422346  0.54964147    -0.74500
O259        O  0.45023926  0.71795487  0.51955493    -0.74400
O260        O  0.42069938  0.67337862  0.52926627    -0.74500
Ni261      Ni  0.46241668  0.67999600  0.53393078     1.25400
Ni262      Ni  0.43452700  0.69618436  0.52394125     1.25400
C263        C  0.42883762  0.65858926  0.53588136     0.87800
C264        C  0.46812533  0.71779755  0.52260143     0.87700
C265        C  0.44310534  0.69961631  0.56250248     0.87700
C266        C  0.45345234  0.67563720  0.49558780     0.87900
O267        O  0.47953661  0.57844796  0.38174771    -0.74400
O268        O  0.49344131  0.54883880  0.33834746    -0.74500
O269        O  0.51204951  0.56377001  0.36834968    -0.74500
O270        O  0.46087333  0.56337789  0.35220930    -0.74600
O271        O  0.46574232  0.59015161  0.33614061    -0.74500
O272        O  0.51759063  0.59004622  0.35168352    -0.74500
O273        O  0.49791436  0.57531592  0.32186374    -0.74400
O274        O  0.48528268  0.60479771  0.36538141    -0.74500
Ni275      Ni  0.48635597  0.56262549  0.36069875     1.25400
Ni276      Ni  0.49187878  0.59098297  0.34310818     1.25400
C277        C  0.48011499  0.59654735  0.38066386     0.87800
C278        C  0.49739496  0.55723043  0.32274369     0.87700
C279        C  0.52301274  0.57722477  0.36327027     0.87700
C280        C  0.45476461  0.57696028  0.34199260     0.87900
O281        O  0.62880289  0.55798047  0.46836854    -0.74400
O282        O  0.67005450  0.54387153  0.50035803    -0.74500
O283        O  0.65930884  0.57592917  0.48235913    -0.74500
O284        O  0.63934553  0.52583904  0.48650610    -0.74600
O285        O  0.65651548  0.51686768  0.46150040    -0.74500
O286        O  0.67552932  0.56722042  0.45663610    -0.74500
O287        O  0.68694510  0.53610128  0.47493589    -0.74400
O288        O  0.64525345  0.54837221  0.44319563    -0.74500
Ni289      Ni  0.64876077  0.55116151  0.48533483     1.25400
Ni290      Ni  0.66664518  0.54175955  0.45818266     1.25400
C291        C  0.63037927  0.55572656  0.45045439     0.87800
C292        C  0.68558742  0.53830791  0.49285013     0.87700
C293        C  0.67056623  0.57978684  0.46868579     0.87700
C294        C  0.64459624  0.51320012  0.47465749     0.87900
O295        O  0.56333363  0.38505439  0.48729324    -0.74400
O296        O  0.54109167  0.33618228  0.49592371    -0.74500
O297        O  0.55055668  0.36660067  0.51796873    -0.74500
O298        O  0.55332131  0.35564814  0.46528058    -0.74600
O299        O  0.58194151  0.34290514  0.46907172    -0.74500
O300        O  0.57940857  0.35478044  0.52243489    -0.74500
O301        O  0.56972748  0.32435420  0.50087781    -0.74400
O302        O  0.59198299  0.37246945  0.49121887    -0.74500
Ni303      Ni  0.55101457  0.36118987  0.49152598     1.25400
Ni304      Ni  0.58174519  0.34804424  0.49604466     1.25400
C305        C  0.58140386  0.38674315  0.48794731     0.87800
C306        C  0.55184070  0.32204134  0.49969276     0.87700
C307        C  0.56482397  0.36365774  0.52868294     0.87700
C308        C  0.56826681  0.34823298  0.45832794     0.87900
O309        O  0.54751098  0.47214670  0.63354800    -0.74400
O310        O  0.53486958  0.50606645  0.67433671    -0.74500
O311        O  0.56608950  0.48705506  0.66345937    -0.74500
O312        O  0.51605640  0.49161317  0.64399316    -0.74600
O313        O  0.50669633  0.46717535  0.66169499    -0.74500
O314        O  0.55723812  0.46219306  0.68079868    -0.74500
O315        O  0.52604792  0.48123920  0.69174057    -0.74400
O316        O  0.53793531  0.44781376  0.65120386    -0.74500
Ni317      Ni  0.54139634  0.49012983  0.65318901     1.25400
Ni318      Ni  0.53160258  0.46377082  0.67199361     1.25400
C319        C  0.54496851  0.45430027  0.63583417     0.87800
C320        C  0.52889812  0.49901112  0.68998272     0.87700
C321        C  0.56999911  0.47375967  0.67506628     0.87700
C322        C  0.50320061  0.48009124  0.64945287     0.87900
O323        O  0.38175127  0.49335376  0.56039234    -0.74400
O324        O  0.33702764  0.50074236  0.53042140    -0.74500
O325        O  0.36604723  0.52313033  0.54238575    -0.74500
O326        O  0.35337688  0.47098848  0.54838367    -0.74600
O327        O  0.33738648  0.47790413  0.57477924    -0.74500
O328        O  0.34945918  0.53033595  0.56829527    -0.74500
O329        O  0.32080610  0.50716012  0.55668821    -0.74400
O330        O  0.36556794  0.50096274  0.58637862    -0.74500
Ni331      Ni  0.36008244  0.49683975  0.54441508     1.25400
Ni332      Ni  0.34266245  0.50436609  0.57241621     1.25400
C333        C  0.38103103  0.49601986  0.57833005     0.87800
C334        C  0.32139172  0.50485258  0.53872203     0.87700
C335        C  0.36038406  0.53520113  0.55463879     0.87700
C336        C  0.34367529  0.46585981  0.56278750     0.87900
O337        O  0.55521967  0.90182582  0.55235604    -0.74400
O338        O  0.52608432  0.85882989  0.53659726    -0.74500
O339        O  0.54122082  0.87086759  0.56957208    -0.74500
O340        O  0.53982201  0.88982942  0.51920936    -0.74600
O341        O  0.56628062  0.87460266  0.51240707    -0.74500
O342        O  0.56804909  0.85553092  0.56284170    -0.74500
O343        O  0.55272216  0.84327638  0.53027026    -0.74400
O344        O  0.58170734  0.88648901  0.54503817    -0.74500
Ni345      Ni  0.53963229  0.88091341  0.54463112     1.25400
Ni346      Ni  0.56812077  0.86441150  0.53735103     1.25400
C347        C  0.57333830  0.90121230  0.55143788     0.87800
C348        C  0.53462850  0.84374340  0.53131088     0.87700
C349        C  0.55499181  0.86025307  0.57448375     0.87700
C350        C  0.55277719  0.88552220  0.50736403     0.87900
O351        O  0.54033855  0.95820974  0.37714481    -0.74400
O352        O  0.52786100  0.98645973  0.33314104    -0.74500
O353        O  0.50977255  0.97726872  0.36560702    -0.74500
O354        O  0.55878173  0.96754335  0.34489039    -0.74600
O355        O  0.54784722  0.94154029  0.33070692    -0.74500
O356        O  0.49880693  0.95069046  0.35260550    -0.74500
O357        O  0.51620470  0.96037282  0.31974231    -0.74400
O358        O  0.53030781  0.93182874  0.36318134    -0.74500
Ni359      Ni  0.53458068  0.97331585  0.35562591     1.25400
Ni360      Ni  0.52286874  0.94517970  0.34100209     1.25400
C361        C  0.53725126  0.94038631  0.37750054     0.87800
C362        C  0.52001721  0.97804224  0.31919738     0.87700
C363        C  0.49641502  0.96533549  0.36305322     0.87700
C364        C  0.56144515  0.95289277  0.33461061     0.87900
O365        O  0.44973711  0.14497876  0.47718144    -0.74400
O366        O  0.48776890  0.18241970  0.48726383    -0.74500
O367        O  0.46872954  0.15615279  0.50842402    -0.74500
O368        O  0.46846722  0.17027776  0.45626827    -0.74600
O369        O  0.44645273  0.19194656  0.46226612    -0.74500
O370        O  0.44578465  0.17697014  0.51453050    -0.74500
O371        O  0.46490292  0.20327123  0.49365170    -0.74400
O372        O  0.42717126  0.16635987  0.48279182    -0.74500
Ni373      Ni  0.46956722  0.16274588  0.48216944     1.25400
Ni374      Ni  0.44533571  0.18542983  0.48860337     1.25400
C375        C  0.43224037  0.14972374  0.47788326     0.87800
C376        C  0.48241685  0.19918816  0.49165254     0.87700
C377        C  0.45690806  0.16368810  0.51992246     0.87700
C378        C  0.45693195  0.18294297  0.45048641     0.87900
O379        O  0.37639959  0.98800600  0.45427048    -0.74400
O380        O  0.33142842  0.00025029  0.48274273    -0.74500
O381        O  0.34544604  0.96874725  0.46698021    -0.74500
O382        O  0.36218100  0.01936083  0.47112067    -0.74600
O383        O  0.34795626  0.02698803  0.44422368    -0.74500
O384        O  0.33095121  0.97538289  0.43986504    -0.74500
O385        O  0.31659479  0.00689184  0.45587922    -0.74400
O386        O  0.36139641  0.99548796  0.42754833    -0.74500
Ni387      Ni  0.35441689  0.99384707  0.46967875     1.25400
Ni388      Ni  0.33863775  0.00150560  0.44092659     1.25400
C389        C  0.37627725  0.98998571  0.43618297     0.87800
C390        C  0.31632877  0.00498420  0.47389432     0.87700
C391        C  0.33531340  0.96360648  0.45300279     0.87700
C392        C  0.35850084  0.03147697  0.45831733     0.87900
O393        O  0.47747061  0.08307597  0.64533905    -0.74400
O394        O  0.48796576  0.05511575  0.69070411    -0.74500
O395        O  0.45659968  0.06955395  0.67454949    -0.74500
O396        O  0.50888887  0.06842862  0.66160454    -0.74600
O397        O  0.51364389  0.09534956  0.67740443    -0.74500
O398        O  0.46098626  0.09690476  0.68966380    -0.74500
O399        O  0.49182117  0.08215710  0.70633228    -0.74400
O400        O  0.48231211  0.11014395  0.66081061    -0.74500
Ni401      Ni  0.48260441  0.06808721  0.66747513     1.25400
Ni402      Ni  0.48741049  0.09710386  0.68411139     1.25400
C403        C  0.47805335  0.10120539  0.64563682     0.87800
C404        C  0.49109853  0.06404124  0.70615351     0.87700
C405        C  0.45020464  0.08341787  0.68424759     0.87700
C406        C  0.51982794  0.08164719  0.66730940     0.87900
O407        O  0.63526687  0.05969962  0.57499714    -0.74400
O408        O  0.67726755  0.04736029  0.54314144    -0.74500
O409        O  0.64765299  0.02794741  0.55801289    -0.74500
O410        O  0.66439531  0.07908360  0.56018661    -0.74600
O411        O  0.68129171  0.07251097  0.58603824    -0.74500
O412        O  0.66524486  0.02083710  0.58324076    -0.74500
O413        O  0.69467565  0.04120043  0.56868537    -0.74400
O414        O  0.65231002  0.05215133  0.60039591    -0.74500
Ni415      Ni  0.65558348  0.05371488  0.55813009     1.25400
Ni416      Ni  0.67407121  0.04638880  0.58546181     1.25400
C417        C  0.63684272  0.05785779  0.59294937     0.87800
C418        C  0.69305428  0.04272159  0.55070979     0.87700
C419        C  0.65318535  0.01615908  0.57057120     0.87700
C420        C  0.67512171  0.08431052  0.57375369     0.87900
O421        O  0.45063650  0.89694519  0.05220878    -0.74400
O422        O  0.48007761  0.85432742  0.03581109    -0.74500
O423        O  0.46443909  0.88472471  0.01845630    -0.74500
O424        O  0.46644842  0.86689978  0.06927786    -0.74600
O425        O  0.43935528  0.85184095  0.06535560    -0.74500
O426        O  0.43839399  0.86767744  0.01322423    -0.74500
O427        O  0.45348060  0.83777032  0.03235797    -0.74400
O428        O  0.42420150  0.88097549  0.04615481    -0.74500
Ni429      Ni  0.46635318  0.87629463  0.04403109     1.25400
Ni430      Ni  0.43794597  0.85890502  0.03905485     1.25400
C431        C  0.43251625  0.89589190  0.05206742     0.87800
C432        C  0.47156320  0.83883424  0.03182523     0.87700
C433        C  0.45114667  0.87926303  0.00747789     0.87700
C434        C  0.45294357  0.85709723  0.07616818     0.87900
O435        O  0.36953108  0.05213159  0.08264962    -0.74400
O436        O  0.32756646  0.04044950  0.05059815    -0.74500
O437        O  0.34003056  0.07171588  0.06816737    -0.74500
O438        O  0.35720716  0.02089256  0.06491534    -0.74600
O439        O  0.33972929  0.01307759  0.09005157    -0.74500
O440        O  0.32296165  0.06443647  0.09378476    -0.74500
O441        O  0.31022230  0.03339753  0.07603828    -0.74400
O442        O  0.35236424  0.04438633  0.10806189    -0.74500
Ni443      Ni  0.34919398  0.04654093  0.06568089     1.25400
Ni444      Ni  0.33069266  0.03851563  0.09290242     1.25400
C445        C  0.36789038  0.05001415  0.10058182     0.87800
C446        C  0.31180591  0.03554536  0.05811774     0.87700
C447        C  0.32859956  0.07640784  0.08138846     0.87700
C448        C  0.35157612  0.00867970  0.07702733     0.87900
O449        O  0.46851424  0.97658072  0.89196206    -0.74400
O450        O  0.48115489  0.00646179  0.84803024    -0.74500
O451        O  0.44963316  0.98919575  0.86112444    -0.74500
O452        O  0.50032372  0.99436945  0.87880820    -0.74600
O453        O  0.50847060  0.96822308  0.86356361    -0.74500
O454        O  0.45745299  0.96260102  0.84611216    -0.74500
O455        O  0.48862199  0.98012948  0.83256098    -0.74400
O456        O  0.47709072  0.95052640  0.87651532    -0.74500
Ni457      Ni  0.47465817  0.99257861  0.87057003     1.25400
Ni458      Ni  0.48326897  0.96447766  0.85412717     1.25400
C459        C  0.47046373  0.95851738  0.89135894     0.87800
C460        C  0.48648584  0.99812319  0.83281359     0.87700
C461        C  0.44511258  0.97498486  0.85090346     0.87700
C462        C  0.51290274  0.98222405  0.87418281     0.87900
O463        O  0.53343834  0.08221624  0.14492969    -0.74400
O464        O  0.52544393  0.05114903  0.18846594    -0.74500
O465        O  0.50360502  0.06322870  0.15937981    -0.74500
O466        O  0.55520044  0.07004317  0.17363063    -0.74600
O467        O  0.54721100  0.09536966  0.19063657    -0.74500
O468        O  0.49540397  0.08888056  0.17589133    -0.74500
O469        O  0.51717821  0.07673737  0.20505600    -0.74400
O470        O  0.52555097  0.10778675  0.16170075    -0.74500
Ni471      Ni  0.52966740  0.06571456  0.16603778     1.25400
Ni472      Ni  0.52101096  0.09308839  0.18394999     1.25400
C473        C  0.53094250  0.10011355  0.14621835     0.87800
C474        C  0.52026827  0.05895384  0.20397481     0.87700
C475        C  0.49112827  0.07514532  0.16487434     0.87700
C476        C  0.55977137  0.08391111  0.18429911     0.87900
O477        O  0.55973673  0.14619707  0.97867022    -0.74400
O478        O  0.53004834  0.19066796  0.98779884    -0.74500
O479        O  0.54936271  0.17617853  0.95796688    -0.74500
O480        O  0.54032406  0.16027580  0.00860973    -0.74600
O481        O  0.56653472  0.17495877  0.01812489    -0.74500
O482        O  0.57498332  0.19201445  0.96735772    -0.74500
O483        O  0.55597335  0.20581797  0.99760893    -0.74400
O484        O  0.58561648  0.16182047  0.98778785    -0.74500
Ni485      Ni  0.54389378  0.16782125  0.98297970     1.25400
Ni486      Ni  0.57165709  0.18425632  0.99311540     1.25400
C487        C  0.57766059  0.14693327  0.98131538     0.87800
C488        C  0.53823226  0.20556612  0.99406654     0.87700
C489        C  0.56388440  0.18630521  0.95423311     0.87700
C490        C  0.55218542  0.16441798  0.02160843     0.87900
O491        O  0.64415483  0.99111606  0.94892116    -0.74400
O492        O  0.69005060  0.00304655  0.97470510    -0.74500
O493        O  0.65756850  0.02162219  0.96660091    -0.74500
O494        O  0.67628200  0.97196336  0.95716814    -0.74600
O495        O  0.68952059  0.98178240  0.93017882    -0.74500
O496        O  0.66959176  0.03166801  0.93916425    -0.74500
O497        O  0.70259934  0.01361676  0.94772224    -0.74400
O498        O  0.65722281  0.00031358  0.92173154    -0.74500
Ni499      Ni  0.66667885  0.99656399  0.96284242     1.25400
Ni500      Ni  0.68032607  0.00720459  0.93376187     1.25400
C501        C  0.64295002  0.99429810  0.93112569     0.87800
C502        C  0.70382108  0.01044926  0.96550023     0.87700
C503        C  0.65943484  0.03444241  0.95397526     0.87700
C504        C  0.68550969  0.96856357  0.94196760     0.87900
O505        O  0.93944824  0.15514537  0.04299943    -0.74400
O506        O  0.97269178  0.19583764  0.03136915    -0.74500
O507        O  0.95431618  0.18382768  0.06250042    -0.74500
O508        O  0.95792629  0.16663566  0.01175446    -0.74600
O509        O  0.93370609  0.18515322  0.00348701    -0.74500
O510        O  0.92863438  0.20069994  0.05523667    -0.74500
O511        O  0.94784423  0.21412170  0.02493158    -0.74400
O512        O  0.91482656  0.17210743  0.03380728    -0.74500
Ni513      Ni  0.95698753  0.17477635  0.03738000     1.25400
Ni514      Ni  0.93037050  0.19375678  0.02904103     1.25400
C515        C  0.92168170  0.15657442  0.04004552     0.87800
C516        C  0.96573798  0.21193132  0.02692655     0.87700
C517        C  0.94056241  0.19448655  0.06737114     0.87700
C518        C  0.94629148  0.17277058  0.99937771     0.87900
O519        O  0.87343742  0.99180764  0.07590256    -0.74400
O520        O  0.83075918  0.00143016  0.04378635    -0.74500
O521        O  0.86072119  0.02165175  0.05591515    -0.74500
O522        O  0.84380130  0.97132659  0.06352510    -0.74600
O523        O  0.82718263  0.98045594  0.08879705    -0.74500
O524        O  0.84307503  0.03150989  0.07991668    -0.74500
O525        O  0.81368340  0.01015030  0.06892943    -0.74400
O526        O  0.85665810  0.00176342  0.10068489    -0.74500
Ni527      Ni  0.85276612  0.99621615  0.05889753     1.25400
Ni528      Ni  0.83460262  0.00632025  0.08553614     1.25400
C529        C  0.87204969  0.99521784  0.09366108     0.87800
C530        C  0.81522362  0.00730202  0.05114771     0.87700
C531        C  0.85427575  0.03508895  0.06608174     0.87700
C532        C  0.83283396  0.96753261  0.07739918     0.87900
O533        O  0.03806080  0.97291044  0.14304574    -0.74400
O534        O  0.02982580  0.99941306  0.18979688    -0.74500
O535        O  0.05941214  0.98156626  0.17342138    -0.74500
O536        O  0.00836729  0.99115214  0.15900958    -0.74600
O537        O  0.99932321  0.96389196  0.17200455    -0.74500
O538        O  0.05051624  0.95493816  0.18784384    -0.74500
O539        O  0.02028601  0.97246506  0.20325291    -0.74400
O540        O  0.02957678  0.94602428  0.15728566    -0.74500
Ni541      Ni  0.03418859  0.98726962  0.16585976     1.25400
Ni542      Ni  0.02455023  0.95841416  0.18063182     1.25400
C543        C  0.03523422  0.95499246  0.14262823     0.87800
C544        C  0.02414543  0.99008982  0.20430818     0.87700
C545        C  0.06343433  0.96669908  0.18289687     0.87700
C546        C  0.99556986  0.97878815  0.16233477     0.87900
O547        O  0.05249900  0.89172245  0.97818655    -0.74400
O548        O  0.02541768  0.84732018  0.99363816    -0.74500
O549        O  0.03543558  0.88004400  0.01058679    -0.74500
O550        O  0.04220632  0.85918886  0.96117605    -0.74600
O551        O  0.06944014  0.84611938  0.97031715    -0.74500
O552        O  0.06221289  0.86689134  0.02015945    -0.74500
O553        O  0.05231606  0.83378644  0.00219021    -0.74400
O554        O  0.07930604  0.87860182  0.98811156    -0.74500
Ni555      Ni  0.03791518  0.86999529  0.98562149     1.25400
Ni556      Ni  0.06674387  0.85582025  0.99560637     1.25400
C557        C  0.07045527  0.89250698  0.98061129     0.87800
C558        C  0.03438043  0.83287150  0.99984051     0.87700
C559        C  0.04786736  0.87754360  0.02344853     0.87700
C560        C  0.05711140  0.84959073  0.95749338     0.87900
O561        O  0.13204912  0.05716782  0.96432780    -0.74400
O562        O  0.17353811  0.04153565  0.99524179    -0.74500
O563        O  0.16312642  0.07424902  0.97809029    -0.74500
O564        O  0.14192892  0.02446219  0.98139248    -0.74600
O565        O  0.15871680  0.01569962  0.95613022    -0.74500
O566        O  0.17865731  0.06591570  0.95184238    -0.74500
O567        O  0.18994656  0.03412809  0.96937900    -0.74400
O568        O  0.14779198  0.04772806  0.93865828    -0.74500
Ni569      Ni  0.15212680  0.04959312  0.98074558     1.25400
Ni570      Ni  0.16937972  0.04048911  0.95312775     1.25400
C571        C  0.13307733  0.05493908  0.94638020     0.87800
C572        C  0.18892366  0.03605750  0.98734952     0.87700
C573        C  0.17392854  0.07837551  0.96411367     0.87700
C574        C  0.14646812  0.01202440  0.96901995     0.87900
O575        O  0.97380118  0.07858875  0.88572638    -0.74400
O576        O  0.98699966  0.04709574  0.84370435    -0.74500
O577        O  0.00595395  0.06171065  0.87363373    -0.74500
O578        O  0.95511329  0.06390669  0.85602804    -0.74600
O579        O  0.96188871  0.08985345  0.83937330    -0.74500
O580        O  0.01320372  0.08720769  0.85642110    -0.74500
O581        O  0.99377085  0.07276987  0.82657418    -0.74400
O582        O  0.98129525  0.10419453  0.86887882    -0.74500
Ni583      Ni  0.98027862  0.06189448  0.86536502     1.25400
Ni584      Ni  0.98784446  0.08940145  0.84716036     1.25400
C585        C  0.97518376  0.09659128  0.88416247     0.87800
C586        C  0.99212528  0.05479507  0.82811130     0.87700
C587        C  0.01783785  0.07423804  0.86818319     0.87700
C588        C  0.95001741  0.07741239  0.84513567     0.87900
O589        O  0.03305463  0.08612745  0.38727364    -0.74400
O590        O  0.02742930  0.05325876  0.34424158    -0.74500
O591        O  0.05643231  0.07236219  0.36054620    -0.74500
O592        O  0.00393541  0.06725709  0.37185077    -0.74600
O593        O  0.99724449  0.09188296  0.35344814    -0.74500
O594        O  0.05029705  0.09711629  0.34231672    -0.74500
O595        O  0.02118095  0.07841627  0.32630157    -0.74400
O596        O  0.02613436  0.11097640  0.36934373    -0.74500
Ni597      Ni  0.03038184  0.06882105  0.36655301     1.25400
Ni598      Ni  0.02349047  0.09547522  0.34717646     1.25400
C599        C  0.03015159  0.10394476  0.38554656     0.87800
C600        C  0.02397053  0.06060495  0.32799585     0.87700
C601        C  0.06222307  0.08554094  0.34960710     0.87700
C602        C  0.99196494  0.07905073  0.36514700     0.87900
O603        O  0.87331252  0.05997055  0.45581106    -0.74400
O604        O  0.83084847  0.04622578  0.48652090    -0.74500
O605        O  0.86233692  0.02800575  0.47424176    -0.74500
O606        O  0.84235600  0.07779952  0.46822458    -0.74600
O607        O  0.82726784  0.06866239  0.44207838    -0.74500
O608        O  0.84706210  0.01836012  0.44858965    -0.74500
O609        O  0.81522145  0.03746814  0.46067749    -0.74400
O610        O  0.85832080  0.04985859  0.43033007    -0.74500
Ni611      Ni  0.85273513  0.05321183  0.47214976     1.25400
Ni612      Ni  0.83634368  0.04313087  0.44456283     1.25400
C613        C  0.87270072  0.05778473  0.43783721     0.87800
C614        C  0.81566115  0.04043759  0.47855389     0.87700
C615        C  0.85872877  0.01509273  0.46208297     0.87700
C616        C  0.83208752  0.08158418  0.45383801     0.87900
O617        O  0.94841197  0.89479931  0.48616445    -0.74400
O618        O  0.97793353  0.85040239  0.49658648    -0.74500
O619        O  0.96111582  0.86534779  0.46564756    -0.74500
O620        O  0.96534504  0.88022480  0.51725053    -0.74600
O621        O  0.93856869  0.86502127  0.52419018    -0.74500
O622        O  0.93520756  0.84874540  0.47255374    -0.74500
O623        O  0.95151566  0.83470484  0.50398898    -0.74400
O624        O  0.92201357  0.87866897  0.49244021    -0.74500
Ni625      Ni  0.96416258  0.87323782  0.49123262     1.25400
Ni626      Ni  0.93589785  0.85619931  0.49860598     1.25400
C627        C  0.93031292  0.89392310  0.48724691     0.87800
C628        C  0.96947525  0.83515619  0.50160053     0.87700
C629        C  0.94749294  0.85461777  0.46054330     0.87700
C630        C  0.95243896  0.87561468  0.52910886     0.87900
O631        O  0.06020757  0.15655568  0.55296083    -0.74400
O632        O  0.02971073  0.19952541  0.54002855    -0.74500
O633        O  0.04119941  0.16804596  0.52162736    -0.74500
O634        O  0.04836356  0.18817685  0.57130220    -0.74600
O635        O  0.07444854  0.20311772  0.56151072    -0.74500
O636        O  0.06661044  0.18376407  0.51143915    -0.74500
O637        O  0.05562218  0.21495557  0.53086026    -0.74400
O638        O  0.08587057  0.17164645  0.54246171    -0.74500
Ni639      Ni  0.04397536  0.17748804  0.54683230     1.25400
Ni640      Ni  0.07158527  0.19385581  0.53619015     1.25400
C641        C  0.07807161  0.15697724  0.54973124     0.87800
C642        C  0.03774271  0.21452226  0.53375999     0.87700
C643        C  0.05249205  0.17282911  0.50826561     0.87700
C644        C  0.06235647  0.19922037  0.57446375     0.87900
O645        O  0.13253271  0.99555342  0.56845239    -0.74400
O646        O  0.17552017  0.00601667  0.53672861    -0.74500
O647        O  0.16020101  0.97463374  0.55262518    -0.74500
O648        O  0.14727666  0.02715108  0.55253109    -0.74600
O649        O  0.16506940  0.03182907  0.57815934    -0.74500
O650        O  0.17780974  0.97899684  0.57842702    -0.74500
O651        O  0.19321629  0.01011072  0.56243152    -0.74400
O652        O  0.15039470  0.00033145  0.59399286    -0.74500
Ni653      Ni  0.15329303  0.00076022  0.55161720     1.25400
Ni654      Ni  0.17231766  0.00556509  0.57909908     1.25400
C655        C  0.13454065  0.99595257  0.58647674     0.87800
C656        C  0.19165379  0.00913641  0.54441047     0.87700
C657        C  0.17064565  0.96808297  0.56586198     0.87700
C658        C  0.15346089  0.03797057  0.56565823     0.87900
O659        O  0.97649868  0.95353614  0.65436940    -0.74400
O660        O  0.99092412  0.98335332  0.69713673    -0.74500
O661        O  0.00723648  0.97433240  0.66344180    -0.74500
O662        O  0.96036919  0.96284601  0.68775393    -0.74600
O663        O  0.97353290  0.93777187  0.70173535    -0.74500
O664        O  0.02019626  0.94844506  0.67607364    -0.74500
O665        O  0.00498024  0.95832395  0.70980286    -0.74400
O666        O  0.98867612  0.92794286  0.66811169    -0.74500
Ni667      Ni  0.98334226  0.96944310  0.67518939     1.25400
Ni668      Ni  0.99735971  0.94222531  0.68941159     1.25400
C669        C  0.97986236  0.93572427  0.65434674     0.87800
C670        C  0.00014334  0.97573853  0.71074277     0.87700
C671        C  0.02131056  0.96316793  0.66557503     0.87700
C672        C  0.95923336  0.94846814  0.69867826     0.87900
O673        O  0.72491018  0.64466046  0.81442092    -0.74400
O674        O  0.73917203  0.60180662  0.78392565    -0.74500
O675        O  0.70654383  0.61501082  0.79940554    -0.74500
O676        O  0.75763790  0.63195448  0.79833542    -0.74600
O677        O  0.76425061  0.61470904  0.82395682    -0.74500
O678        O  0.71214188  0.59945355  0.82628755    -0.74500
O679        O  0.74392200  0.58520800  0.81025978    -0.74400
O680        O  0.73245356  0.62845466  0.84029631    -0.74500
Ni681      Ni  0.73190771  0.62395638  0.79806445     1.25400
Ni682      Ni  0.73844736  0.60633801  0.82610765     1.25400
C683        C  0.72601912  0.64344737  0.83251745     0.87800
C684        C  0.74364155  0.58627521  0.79219907     0.87700
C685        C  0.70073889  0.60507867  0.81335435     0.87700
C686        C  0.76937233  0.62601612  0.81072053     0.87900
O687        O  0.89066074  0.71251702  0.78935483    -0.74400
O688        O  0.93635777  0.74085988  0.78152584    -0.74500
O689        O  0.90752290  0.72897499  0.75923269    -0.74500
O690        O  0.91906399  0.72475120  0.81151836    -0.74600
O691        O  0.93450699  0.69774318  0.80611123    -0.74500
O692        O  0.92322219  0.70222324  0.75322459    -0.74500
O693        O  0.95184751  0.71389434  0.77600457    -0.74400
O694        O  0.90639454  0.68587480  0.78324269    -0.74500
Ni695      Ni  0.91287962  0.72776949  0.78555439     1.25400
Ni696      Ni  0.92961628  0.69901074  0.77940790     1.25400
C697        C  0.89112492  0.69444504  0.78779868     0.87800
C698        C  0.95167489  0.73188811  0.77776375     0.87700
C699        C  0.91293827  0.71610588  0.74774983     0.87700
C700        C  0.92828969  0.71042355  0.81750604     0.87900
O701        O  0.63033705  0.82489941  0.72855355    -0.74400
O702        O  0.58586713  0.79802241  0.74373737    -0.74500
O703        O  0.59851914  0.81313814  0.71109443    -0.74500
O704        O  0.61773000  0.80956691  0.76121020    -0.74600
O705        O  0.60311766  0.83649182  0.76897223    -0.74500
O706        O  0.58501851  0.84080308  0.71821624    -0.74500
O707        O  0.57141511  0.82525111  0.75001037    -0.74400
O708        O  0.61654439  0.85203635  0.73677943    -0.74500
Ni709      Ni  0.60860888  0.81043055  0.73592521     1.25400
Ni710      Ni  0.59351265  0.83962834  0.74382332     1.25400
C711        C  0.63084549  0.84291469  0.73036316     0.87800
C712        C  0.57099745  0.80721057  0.74849293     0.87700
C713        C  0.58871427  0.82758518  0.70641112     0.87700
C714        C  0.61373996  0.82245905  0.77323827     0.87900
O715        O  0.70574642  0.80003342  0.89110757    -0.74400
O716        O  0.73352667  0.79007641  0.93652288    -0.74500
O717        O  0.72056588  0.76880417  0.90719161    -0.74500
O718        O  0.71851080  0.82128789  0.91996704    -0.74600
O719        O  0.69090638  0.81676783  0.93450340    -0.74500
O720        O  0.69390546  0.76372653  0.92337072    -0.74500
O721        O  0.70637519  0.78610760  0.95217128    -0.74400
O722        O  0.67876541  0.79429215  0.90650688    -0.74500
Ni723      Ni  0.72061244  0.79517446  0.91323189     1.25400
Ni724      Ni  0.69159184  0.79000762  0.92981189     1.25400
C725        C  0.68765535  0.79888736  0.89140661     0.87800
C726        C  0.72449148  0.78672754  0.95189804     0.87700
C727        C  0.70721295  0.75777745  0.91255641     0.87700
C728        C  0.70385975  0.82790036  0.92835460     0.87900
O729        O  0.81895808  0.74291469  0.63338563    -0.74400
O730        O  0.79042973  0.75306180  0.58827215    -0.74500
O731        O  0.80566572  0.72216166  0.60467574    -0.74500
O732        O  0.80328228  0.77417534  0.61799935    -0.74600
O733        O  0.82991296  0.78002516  0.60204884    -0.74500
O734        O  0.83282646  0.72716427  0.58925770    -0.74500
O735        O  0.81739354  0.75771806  0.57262778    -0.74400
O736        O  0.84562272  0.74892563  0.61753671    -0.74500
Ni737      Ni  0.80356594  0.74803339  0.61158027     1.25400
Ni738      Ni  0.83233034  0.75379558  0.59471597     1.25400
C739        C  0.83708995  0.74366092  0.63258623     0.87800
C740        C  0.79938755  0.75593264  0.57271426     0.87700
C741        C  0.81996288  0.71596941  0.59552104     0.87700
C742        C  0.81651934  0.78548808  0.61308509     0.87900
O743        O  0.79577361  0.89293454  0.71937350    -0.74400
O744        O  0.78004614  0.93549469  0.74976817    -0.74500
O745        O  0.76216905  0.90676865  0.73201018    -0.74500
O746        O  0.81368904  0.92159102  0.73764910    -0.74600
O747        O  0.81204699  0.93788647  0.71091065    -0.74500
O748        O  0.75944465  0.92505771  0.70639516    -0.74500
O749        O  0.77914681  0.95307511  0.72365248    -0.74400
O750        O  0.79226280  0.91046653  0.69343080    -0.74500
Ni751      Ni  0.78799118  0.91355719  0.73564307     1.25400
Ni752      Ni  0.78563497  0.93230059  0.70771546     1.25400
C753        C  0.79650327  0.89475212  0.70128766     0.87800
C754        C  0.77713542  0.95141911  0.74157214     0.87700
C755        C  0.75233211  0.91346088  0.71840374     0.87700
C756        C  0.82167271  0.93176661  0.72501129     0.87900
O757        O  0.19720777  0.80529268  0.62877472    -0.74400
O758        O  0.22237701  0.79545707  0.58150912    -0.74500
O759        O  0.20503672  0.82548515  0.59748457    -0.74500
O760        O  0.21518153  0.77513309  0.61336002    -0.74600
O761        O  0.18814774  0.76532224  0.60038653    -0.74500
O762        O  0.17731007  0.81649022  0.58536598    -0.74500
O763        O  0.19480687  0.78675832  0.56897041    -0.74400
O764        O  0.17017559  0.79507713  0.61624080    -0.74500
Ni765      Ni  0.21096008  0.80060705  0.60570133     1.25400
Ni766      Ni  0.18166402  0.79050301  0.59225742     1.25400
C767        C  0.17938089  0.80204652  0.63013937     0.87800
C768        C  0.21251693  0.79005908  0.56726743     0.87700
C769        C  0.18944616  0.82940554  0.58926138     0.87700
C770        C  0.20328630  0.76199836  0.60983131     0.87900
O771        O  0.22588084  0.64061180  0.69747993    -0.74400
O772        O  0.23777264  0.59651981  0.72667105    -0.74500
O773        O  0.25566645  0.62963357  0.71846899    -0.74500
O774        O  0.20793050  0.60794027  0.70565145    -0.74600
O775        O  0.22061047  0.59487773  0.67980460    -0.74500
O776        O  0.26872903  0.61567335  0.69330588    -0.74500
O777        O  0.24977177  0.58272814  0.70102971    -0.74400
O778        O  0.23942176  0.62741049  0.67224723    -0.74500
Ni779      Ni  0.23139221  0.61909367  0.71302846     1.25400
Ni780      Ni  0.24516244  0.60464718  0.68573635     1.25400
C781        C  0.23092504  0.64137569  0.68007410     0.87800
C782        C  0.24498219  0.58202193  0.71850726     0.87700
C783        C  0.26983121  0.62683786  0.70752985     0.87700
C784        C  0.20635449  0.59816952  0.69050371     0.87900
O785        O  0.30792281  0.73795593  0.88551666    -0.74400
O786        O  0.27718662  0.74939649  0.92879387    -0.74500
O787        O  0.29124409  0.76945007  0.89945436    -0.74500
O788        O  0.29354879  0.71753783  0.91458425    -0.74600
O789        O  0.32006821  0.72335360  0.93065171    -0.74500
O790        O  0.31682704  0.77584938  0.91677652    -0.74500
O791        O  0.30332284  0.75413366  0.94554677    -0.74400
O792        O  0.33373119  0.74509052  0.90210926    -0.74500
Ni793      Ni  0.29152547  0.74333479  0.90650806     1.25400
Ni794      Ni  0.31939109  0.74981036  0.92440031     1.25400
C795        C  0.32590623  0.74011641  0.88661185     0.87800
C796        C  0.28528082  0.75365191  0.94442655     0.87700
C797        C  0.30363529  0.78115707  0.90552127     0.87700
C798        C  0.30732973  0.71183549  0.92483417     0.87900
O799        O  0.38435481  0.72548916  0.72607382    -0.74400
O800        O  0.42859993  0.75421680  0.73823664    -0.74500
O801        O  0.41395621  0.73934191  0.70634432    -0.74500
O802        O  0.39866142  0.74069926  0.75780436    -0.74600
O803        O  0.41476903  0.71416814  0.76368255    -0.74500
O804        O  0.42916155  0.71215239  0.71129557    -0.74500
O805        O  0.44444652  0.72734011  0.74301917    -0.74400
O806        O  0.40010814  0.69884692  0.73220372    -0.74500
Ni807      Ni  0.40588027  0.74090933  0.73193555     1.25400
Ni808      Ni  0.42278071  0.71219272  0.73775904     1.25400
C809        C  0.38493656  0.70741902  0.72741138     0.87800
C810        C  0.44386731  0.74540793  0.74242485     0.87700
C811        C  0.42346768  0.72528904  0.70014333     0.87700
C812        C  0.40378910  0.72756131  0.76908850     0.87900
O813        O  0.13344407  0.82300877  0.79963487    -0.74400
O814        O  0.09209648  0.79139785  0.78450104    -0.74500
O815        O  0.12143759  0.80774782  0.76642039    -0.74500
O816        O  0.10402759  0.80645593  0.81781239    -0.74600
O817        O  0.08690909  0.83242342  0.81252221    -0.74500
O818        O  0.10336359  0.83302016  0.76083391    -0.74500
O819        O  0.07432705  0.81690492  0.78016499    -0.74400
O820        O  0.11591028  0.84853262  0.79357681    -0.74500
Ni821      Ni  0.11340498  0.80623369  0.79227224     1.25400
Ni822      Ni  0.09452124  0.83362483  0.78654453     1.25400
C823        C  0.13138006  0.84101207  0.79921198     0.87800
C824        C  0.07623079  0.79890832  0.78006556     0.87700
C825        C  0.11506401  0.82040261  0.75513769     0.87700
C826        C  0.09272174  0.81937179  0.82365692     0.87900
O827        O  0.28398682  0.90701404  0.82363593    -0.74400
O828        O  0.27092930  0.95195511  0.79618658    -0.74500
O829        O  0.30328767  0.93719628  0.81016921    -0.74500
O830        O  0.25166284  0.92154515  0.80960879    -0.74600
O831        O  0.24630865  0.93698251  0.83663726    -0.74500
O832        O  0.29839798  0.95201337  0.83764531    -0.74500
O833        O  0.26669367  0.96737172  0.82325477    -0.74400
O834        O  0.27840260  0.92191795  0.85084557    -0.74500
Ni835      Ni  0.27759714  0.92893406  0.80892629     1.25400
Ni836      Ni  0.27220449  0.94516047  0.83805647     1.25400
C837        C  0.28310776  0.90693262  0.84175419     0.87800
C838        C  0.26750379  0.96734765  0.80511542     0.87700
C839        C  0.30934342  0.94701095  0.82408647     0.87700
C840        C  0.24067737  0.92616543  0.82324747     0.87900
O841        O  0.13652938  0.72295339  0.29474138    -0.74400
O842        O  0.09156750  0.75142639  0.28392382    -0.74500
O843        O  0.10740729  0.73610792  0.31543520    -0.74500
O844        O  0.12114621  0.73817179  0.26301854    -0.74600
O845        O  0.10501029  0.71156094  0.25768635    -0.74500
O846        O  0.09203433  0.70902418  0.31021354    -0.74500
O847        O  0.07581480  0.72452793  0.27931563    -0.74400
O848        O  0.12094246  0.69631966  0.28866104    -0.74500
Ni849      Ni  0.11468656  0.73818387  0.28938747     1.25400
Ni850      Ni  0.09784516  0.70945816  0.28373581     1.25400
C851        C  0.13607421  0.70485996  0.29373804     0.87800
C852        C  0.07612914  0.74260792  0.28033596     0.87700
C853        C  0.09788495  0.72192569  0.32148355     0.87700
C854        C  0.11577233  0.72492907  0.25189293     0.87900
O855        O  0.29370804  0.63944506  0.32099678    -0.74400
O856        O  0.28011628  0.59633535  0.29075586    -0.74500
O857        O  0.26149185  0.62725991  0.30436232    -0.74500
O858        O  0.31209220  0.60930303  0.30684454    -0.74600
O859        O  0.30500489  0.59259431  0.33271939    -0.74500
O860        O  0.25410069  0.61206207  0.33106047    -0.74500
O861        O  0.27184618  0.58092846  0.31684632    -0.74400
O862        O  0.28682664  0.62314539  0.34707891    -0.74500
Ni863      Ni  0.28702059  0.61861216  0.30477889     1.25400
Ni864      Ni  0.27916591  0.60151008  0.33282324     1.25400
C865        C  0.29264333  0.63832241  0.33910332     0.87800
C866        C  0.27394232  0.58130710  0.29887006     0.87700
C867        C  0.24972383  0.62334848  0.31755457     0.87700
C868        C  0.31701714  0.59842546  0.32035879     0.87900
O869        O  0.20501123  0.73494199  0.13053599    -0.74400
O870        O  0.23403095  0.74806595  0.08666776    -0.74500
O871        O  0.22488051  0.76565583  0.11970429    -0.74500
O872        O  0.21429681  0.71742148  0.09784211    -0.74600
O873        O  0.18807636  0.72894917  0.08458119    -0.74500
O874        O  0.19937805  0.77763201  0.10560142    -0.74500
O875        O  0.20789106  0.75927936  0.07300569    -0.74400
O876        O  0.17925428  0.74721720  0.11705146    -0.74500
Ni877      Ni  0.22051757  0.74114009  0.10916037     1.25400
Ni878      Ni  0.19274767  0.75374161  0.09458001     1.25400
C879        C  0.18735276  0.73902999  0.13099390     0.87800
C880        C  0.22549556  0.75517548  0.07235836     0.87700
C881        C  0.21371973  0.77954520  0.11652030     0.87700
C882        C  0.19943136  0.71518907  0.08776818     0.87900
O883        O  0.31709765  0.80040332  0.39145785    -0.74400
O884        O  0.27862691  0.78963078  0.42812504    -0.74500
O885        O  0.29677545  0.82114506  0.41627655    -0.74500
O886        O  0.29879735  0.76880168  0.40316439    -0.74600
O887        O  0.32095189  0.76380875  0.42505557    -0.74500
O888        O  0.31934830  0.81653253  0.43783728    -0.74500
O889        O  0.30102100  0.78540138  0.44986653    -0.74400
O890        O  0.33945108  0.79540611  0.41316940    -0.74500
Ni891      Ni  0.29704084  0.79512020  0.40895989     1.25400
Ni892      Ni  0.32098720  0.79006183  0.43226126     1.25400
C893        C  0.33454748  0.79993285  0.39635521     0.87800
C894        C  0.28353716  0.78614765  0.44520002     0.87700
C895        C  0.30783765  0.82747060  0.42910560     0.87700
C896        C  0.31003458  0.75766524  0.41196309     0.87900
O897        O  0.39420892  0.84327665  0.24166419    -0.74400
O898        O  0.43740012  0.81213804  0.25208360    -0.74500
O899        O  0.40715051  0.82466002  0.27238566    -0.74500
O900        O  0.42385862  0.83028838  0.22151596    -0.74600
O901        O  0.44041238  0.85596214  0.22947530    -0.74500
O902        O  0.42322538  0.85046349  0.28093990    -0.74500
O903        O  0.45352905  0.83790173  0.26056813    -0.74400
O904        O  0.41073723  0.86891158  0.24966214    -0.74500
Ni905      Ni  0.41507948  0.82665595  0.24671185     1.25400
Ni906      Ni  0.43259447  0.85420101  0.25554672     1.25400
C907        C  0.39554045  0.86127896  0.24354103     0.87800
C908        C  0.45280612  0.82011532  0.25735256     0.87700
C909        C  0.41197387  0.83676576  0.28489050     0.87700
C910        C  0.43469790  0.84404424  0.21703998     0.87900
O911        O  0.22737864  0.90020794  0.20846889    -0.74400
O912        O  0.23465277  0.94478548  0.23788914    -0.74500
O913        O  0.20568798  0.92988891  0.21804838    -0.74500
O914        O  0.25671634  0.91529383  0.22820689    -0.74600
O915        O  0.26630379  0.93025836  0.20217984    -0.74500
O916        O  0.21519884  0.94588297  0.19271802    -0.74500
O917        O  0.24455696  0.96029026  0.21216957    -0.74400
O918        O  0.23692675  0.91543151  0.18274979    -0.74500
Ni919      Ni  0.23079993  0.92198839  0.22404621     1.25400
Ni920      Ni  0.24108979  0.93850003  0.19648927     1.25400
C921        C  0.23082758  0.90030324  0.19072123     0.87800
C922        C  0.24066098  0.95984042  0.22986426     0.87700
C923        C  0.20197432  0.94070170  0.20400741     0.87700
C924        C  0.26996172  0.92025675  0.21683652     0.87900
O925        O  0.63104309  0.21804339  0.79250059    -0.74400
O926        O  0.58456579  0.24260619  0.77989395    -0.74500
O927        O  0.59933413  0.22737346  0.81148374    -0.74500
O928        O  0.61633464  0.23345139  0.76066122    -0.74600
O929        O  0.60233423  0.20630482  0.75270742    -0.74500
O930        O  0.58826419  0.19901421  0.80448952    -0.74500
O931        O  0.57139298  0.21466778  0.77442024    -0.74400
O932        O  0.61858573  0.19048219  0.78348585    -0.74500
Ni933      Ni  0.60829227  0.23139607  0.78631335     1.25400
Ni934      Ni  0.59467175  0.20165112  0.77837003     1.25400
C935        C  0.63219922  0.20008522  0.79048868     0.87800
C936        C  0.56994560  0.23259401  0.77624163     0.87700
C937        C  0.59135589  0.21200859  0.81667154     0.87700
C938        C  0.61215714  0.22090830  0.74833172     0.87900
O939        O  0.72816066  0.40297959  0.70306608    -0.74400
O940        O  0.74165603  0.44477918  0.73535213    -0.74500
O941        O  0.70947632  0.43241317  0.71843118    -0.74500
O942        O  0.76014087  0.41457852  0.72049053    -0.74600
O943        O  0.76788899  0.43195205  0.69524470    -0.74500
O944        O  0.71648189  0.44946046  0.69274024    -0.74500
O945        O  0.74825374  0.46186891  0.70973415    -0.74400
O946        O  0.73612758  0.42030630  0.67792210    -0.74500
Ni947      Ni  0.73465559  0.42309771  0.72029483     1.25400
Ni948      Ni  0.74250036  0.44155576  0.69305612     1.25400
C949        C  0.72976787  0.40497728  0.68506769     0.87800
C950        C  0.74684099  0.46043869  0.72770655     0.87700
C951        C  0.70452416  0.44345786  0.70503724     0.87700
C952        C  0.77217535  0.41984264  0.70805256     0.87900
O953        O  0.70030109  0.24907303  0.62872465    -0.74400
O954        O  0.72921456  0.26045562  0.58434725    -0.74500
O955        O  0.71534243  0.28081387  0.61345224    -0.74500
O956        O  0.71434704  0.22878311  0.59981042    -0.74600
O957        O  0.68718232  0.23340635  0.58440192    -0.74500
O958        O  0.68893066  0.28602964  0.59693932    -0.74500
O959        O  0.70246118  0.26445542  0.56818470    -0.74400
O960        O  0.67366016  0.25488264  0.61297982    -0.74500
Ni961      Ni  0.71576603  0.25465722  0.60713889     1.25400
Ni962      Ni  0.68711250  0.25989925  0.59000581     1.25400
C963        C  0.68220090  0.25004548  0.62818647     0.87800
C964        C  0.72056274  0.26390812  0.56883008     0.87700
C965        C  0.70236448  0.29192645  0.60753225     0.87700
C966        C  0.70033927  0.22244729  0.59032234     0.87900
O967        O  0.78877186  0.13922408  0.81972230    -0.74400
O968        O  0.77543639  0.09527749  0.79070170    -0.74500
O969        O  0.75659283  0.12588238  0.80414225    -0.74500
O970        O  0.80760356  0.10904641  0.80602982    -0.74600
O971        O  0.80151056  0.09354184  0.83291004    -0.74500
O972        O  0.74993117  0.11016018  0.83076433    -0.74500
O973        O  0.76954237  0.07969183  0.81748615    -0.74400
O974        O  0.78189052  0.12359995  0.84621976    -0.74500
Ni975      Ni  0.78226423  0.11788225  0.80415886     1.25400
Ni976      Ni  0.77544637  0.10113058  0.83276042     1.25400
C977        C  0.78750292  0.13862863  0.83782360     0.87800
C978        C  0.77085316  0.08004080  0.79942845     0.87700
C979        C  0.74509257  0.12133130  0.81735529     0.87700
C980        C  0.81303000  0.09887314  0.81993433     0.87900
O981        O  0.88175534  0.31746372  0.72942584    -0.74400
O982        O  0.92551522  0.28793313  0.74185404    -0.74500
O983        O  0.89390422  0.29880469  0.76063240    -0.74500
O984        O  0.91305440  0.30661274  0.71055883    -0.74600
O985        O  0.92728452  0.33309858  0.72001758    -0.74500
O986        O  0.90915401  0.32464208  0.77043823    -0.74500
O987        O  0.94037304  0.31426506  0.75080374    -0.74400
O988        O  0.89653315  0.34338122  0.73970829    -0.74500
Ni989      Ni  0.90307014  0.30170684  0.73530655     1.25400
Ni990      Ni  0.91892660  0.32970712  0.74563542     1.25400
C991        C  0.88217137  0.33536887  0.73221471     0.87800
C992        C  0.94020100  0.29635110  0.74830817     0.87700
C993        C  0.89809436  0.31064453  0.77366142     0.87700
C994        C  0.92254242  0.32160606  0.70683905     0.87900
O995        O  0.80542020  0.29729075  0.89330630    -0.74400
O996        O  0.77627307  0.28837757  0.93824491    -0.74500
O997        O  0.79143647  0.31929032  0.92118034    -0.74500
O998        O  0.79011600  0.26660782  0.90978189    -0.74600
O999        O  0.81651487  0.26190023  0.92640644    -0.74500
O1000       O  0.81832801  0.31513032  0.93720050    -0.74500
O1001       O  0.80296997  0.28459831  0.95455770    -0.74400
O1002       O  0.83188485  0.29220926  0.90958844    -0.74500
Ni1003     Ni  0.78981276  0.29302504  0.91512852     1.25400
Ni1004     Ni  0.81833070  0.28830844  0.93261422     1.25400
C1005       C  0.82349090  0.29581943  0.89398860     0.87800
C1006       C  0.78488995  0.28532489  0.95389386     0.87700
C1007       C  0.80537517  0.32594803  0.93055331     0.87700
C1008       C  0.80340092  0.25575077  0.91551510     0.87900
O1009       O  0.29105704  0.14869910  0.70949581    -0.74400
O1010       O  0.27708758  0.10704751  0.74154317    -0.74500
O1011       O  0.30913342  0.11866157  0.72408702    -0.74500
O1012       O  0.25886878  0.13787112  0.72704804    -0.74600
O1013       O  0.25066463  0.12103796  0.70164732    -0.74500
O1014       O  0.30141426  0.10190631  0.69846222    -0.74500
O1015       O  0.26948740  0.09020317  0.71604008    -0.74400
O1016       O  0.28277747  0.13187839  0.68416949    -0.74500
Ni1017     Ni  0.28422627  0.12861125  0.72650699     1.25400
Ni1018     Ni  0.27570637  0.11057952  0.69923729     1.25400
C1019       C  0.28940095  0.14702753  0.69150632     0.87800
C1020       C  0.27165664  0.09147559  0.73398399     0.87700
C1021       C  0.31368758  0.10769666  0.71046076     0.87700
C1022       C  0.24677398  0.13334524  0.71440064     0.87900
O1023       O  0.13146681  0.23381678  0.72936760    -0.74400
O1024       O  0.08570344  0.25678656  0.74777751    -0.74500
O1025       O  0.11727494  0.24214059  0.76373743    -0.74500
O1026       O  0.10003083  0.24875360  0.71319053    -0.74600
O1027       O  0.08645546  0.22023871  0.71434698    -0.74500
O1028       O  0.10311385  0.21392851  0.76524994    -0.74500
O1029       O  0.07187213  0.22848575  0.74838011    -0.74400
O1030       O  0.11753183  0.20559440  0.73118391    -0.74500
Ni1031     Ni  0.10908532  0.24643079  0.73849969     1.25400
Ni1032     Ni  0.09422125  0.21607927  0.73984741     1.25400
C1033       C  0.13209451  0.21576911  0.72763136     0.87800
C1034       C  0.07108409  0.24641187  0.75062285     0.87700
C1035       C  0.11348889  0.22680767  0.77255976     0.87700
C1036       C  0.09050897  0.23548761  0.70545097     0.87900
O1037       O  0.32054541  0.30279112  0.63163586    -0.74400
O1038       O  0.28931271  0.29331639  0.58881813    -0.74500
O1039       O  0.30325351  0.27196374  0.61744970    -0.74500
O1040       O  0.30672775  0.32396973  0.60315074    -0.74600
O1041       O  0.33189045  0.31715529  0.58530043    -0.74500
O1042       O  0.32938193  0.26534639  0.60091816    -0.74500
O1043       O  0.31455382  0.28540428  0.57194858    -0.74400
O1044       O  0.34626067  0.29667106  0.61432203    -0.74500
Ni1045     Ni  0.30403242  0.29822488  0.61083973     1.25400
Ni1046     Ni  0.33142705  0.29096398  0.59241972     1.25400
C1047       C  0.33850231  0.30107352  0.63011527     0.87800
C1048       C  0.29659993  0.28748302  0.57332211     0.87700
C1049       C  0.31600062  0.26026239  0.61201505     0.87700
C1050       C  0.32004030  0.32914172  0.59200983     0.87900
O1051       O  0.38433182  0.32011881  0.79465477    -0.74400
O1052       O  0.42734337  0.28829183  0.78636467    -0.74500
O1053       O  0.41185949  0.30614270  0.81677471    -0.74500
O1054       O  0.39951823  0.30225407  0.76429000    -0.74600
O1055       O  0.41746520  0.32751682  0.75803146    -0.74500
O1056       O  0.42921424  0.33183193  0.81062596    -0.74500
O1057       O  0.44495658  0.31387759  0.78075938    -0.74400
O1058       O  0.40188381  0.34539431  0.78778587    -0.74500
Ni1059     Ni  0.40515607  0.30324309  0.79072147     1.25400
Ni1060     Ni  0.42404794  0.33052588  0.78408058     1.25400
C1061       C  0.38606818  0.33804253  0.79264336     0.87800
C1062       C  0.44325879  0.29592721  0.78221321     0.87700
C1063       C  0.42219585  0.31991084  0.82234824     0.87700
C1064       C  0.40626905  0.31437108  0.75262922     0.87900
O1065       O  0.22771200  0.39681663  0.80922391    -0.74400
O1066       O  0.23862088  0.44044021  0.77834066    -0.74500
O1067       O  0.25898525  0.41137824  0.79275018    -0.74500
O1068       O  0.20701269  0.42550075  0.79455498    -0.74600
O1069       O  0.21240620  0.44181903  0.82103943    -0.74500
O1070       O  0.26479068  0.42887129  0.81838097    -0.74500
O1071       O  0.24294624  0.45732731  0.80441276    -0.74400
O1072       O  0.23408002  0.41369407  0.83505465    -0.74500
Ni1073     Ni  0.23287685  0.41796112  0.79273857     1.25400
Ni1074     Ni  0.23877054  0.43607706  0.82059520     1.25400
C1075       C  0.22937870  0.39805167  0.82727494     0.87800
C1076       C  0.24244734  0.45626378  0.78635037     0.87700
C1077       C  0.27028877  0.41739214  0.80549440     0.87700
C1078       C  0.20112938  0.43566790  0.80830940     0.87900
O1079       O  0.21196386  0.23305915  0.88626738    -0.74400
O1080       O  0.23883556  0.24848272  0.93025264    -0.74500
O1081       O  0.22376988  0.21557487  0.91795036    -0.74500
O1082       O  0.22679658  0.26616269  0.89843630    -0.74600
O1083       O  0.19965438  0.27339701  0.91293466    -0.74500
O1084       O  0.19631488  0.22273139  0.93187018    -0.74500
O1085       O  0.21154307  0.25511837  0.94470547    -0.74400
O1086       O  0.18471461  0.24066223  0.90037062    -0.74500
Ni1087     Ni  0.22634657  0.24062616  0.90772981     1.25400
Ni1088     Ni  0.19710379  0.24829768  0.92299484     1.25400
C1089       C  0.19391895  0.23429488  0.88612810     0.87800
C1090       C  0.22958792  0.25358873  0.94495248     0.87700
C1091       C  0.20935171  0.21078951  0.92789513     0.87700
C1092       C  0.21358736  0.27800105  0.90226249     0.87900
O1093       O  0.29748614  0.24033699  0.13695335    -0.74400
O1094       O  0.27436450  0.25175347  0.08943559    -0.74500
O1095       O  0.28428781  0.21960674  0.10740238    -0.74500
O1096       O  0.28744266  0.27203190  0.11896991    -0.74600
O1097       O  0.31539220  0.27387134  0.10441642    -0.74500
O1098       O  0.31314761  0.22088406  0.09449996    -0.74500
O1099       O  0.30275785  0.25199414  0.07569267    -0.74400
O1100       O  0.32596989  0.24257830  0.12336599    -0.74500
Ni1101     Ni  0.28485113  0.24584991  0.11364744     1.25400
Ni1102     Ni  0.31534228  0.24737068  0.09899669     1.25400
C1103       C  0.31557512  0.24029620  0.13804085     0.87800
C1104       C  0.28475324  0.25338415  0.07466111     0.87700
C1105       C  0.29822540  0.21165893  0.09901977     0.87700
C1106       C  0.30199532  0.28153619  0.11390765     0.87900
O1107       O  0.29537337  0.40302337  0.20427083    -0.74400
O1108       O  0.28031298  0.44785056  0.23155005    -0.74500
O1109       O  0.26289252  0.41538052  0.22047687    -0.74500
O1110       O  0.31286014  0.43477824  0.21625288    -0.74600
O1111       O  0.30514228  0.44884337  0.18905150    -0.74500
O1112       O  0.25491006  0.42842169  0.19300027    -0.74500
O1113       O  0.27218100  0.46127269  0.20415238    -0.74400
O1114       O  0.28743914  0.41722724  0.17759398    -0.74500
Ni1115     Ni  0.28806422  0.42479148  0.21917570     1.25400
Ni1116     Ni  0.27958750  0.43952715  0.19006312     1.25400
C1117       C  0.29399333  0.40281945  0.18614507     0.87800
C1118       C  0.27428388  0.46212789  0.22206529     0.87700
C1119       C  0.25102492  0.41760573  0.20705464     0.87700
C1120       C  0.31732945  0.44468186  0.20183837     0.87900
O1121       O  0.22860655  0.13799828  0.32627476    -0.74400
O1122       O  0.23819107  0.09278676  0.29818587    -0.74500
O1123       O  0.20784174  0.10809968  0.31567991    -0.74500
O1124       O  0.25897127  0.12322875  0.30855886    -0.74600
O1125       O  0.26727791  0.10935547  0.33562692    -0.74500
O1126       O  0.21579984  0.09278822  0.34210896    -0.74500
O1127       O  0.24691169  0.07831507  0.32487277    -0.74400
O1128       O  0.23611061  0.12289431  0.35294811    -0.74500
Ni1129     Ni  0.23318906  0.11599520  0.31117707     1.25400
Ni1130     Ni  0.24190207  0.10021165  0.33978977     1.25400
C1131       C  0.23044375  0.13770696  0.34430477     0.87800
C1132       C  0.24372969  0.07801091  0.30707508     0.87700
C1133       C  0.20326469  0.09843295  0.33026772     0.87700
C1134       C  0.27132053  0.11973805  0.32128125     0.87900
O1135       O  0.38444512  0.21338795  0.30080222    -0.74400
O1136       O  0.42133170  0.25102486  0.28830581    -0.74500
O1137       O  0.38837781  0.23895085  0.27274515    -0.74500
O1138       O  0.41702187  0.22542366  0.31650673    -0.74600
O1139       O  0.43267048  0.20358588  0.29990555    -0.74500
O1140       O  0.40495762  0.21817677  0.25569602    -0.74500
O1141       O  0.43784918  0.22956495  0.27253206    -0.74400
O1142       O  0.40029982  0.19225966  0.28352542    -0.74500
Ni1143     Ni  0.40225288  0.23300616  0.29515727     1.25400
Ni1144     Ni  0.41952271  0.21021030  0.27721103     1.25400
C1145       C  0.38636835  0.19659481  0.29427962     0.87800
C1146       C  0.43613671  0.24641242  0.27893522     0.87700
C1147       C  0.39168442  0.23046880  0.25711196     0.87700
C1148       C  0.42911327  0.21196159  0.31555307     0.87900
O1149       O  0.13355944  0.32323269  0.22609322    -0.74400
O1150       O  0.09052857  0.29365494  0.23985104    -0.74500
O1151       O  0.10154449  0.31218698  0.20821064    -0.74500
O1152       O  0.12234904  0.30482303  0.25747576    -0.74600
O1153       O  0.10755833  0.33076342  0.26759808    -0.74500
O1154       O  0.08684841  0.33833870  0.21815118    -0.74500
O1155       O  0.07538580  0.31951852  0.24922109    -0.74400
O1156       O  0.11870215  0.34920592  0.23596703    -0.74500
Ni1157     Ni  0.11247937  0.30753904  0.23255607     1.25400
Ni1158     Ni  0.09656977  0.33536157  0.24318558     1.25400
C1159       C  0.13328965  0.34111271  0.22883373     0.87800
C1160       C  0.07561016  0.30164779  0.24623256     0.87700
C1161       C  0.09100651  0.32657983  0.20505830     0.87700
C1162       C  0.11876188  0.31681762  0.27053601     0.87900
O1163       O  0.20285722  0.29964566  0.39585493    -0.74400
O1164       O  0.22657742  0.29136255  0.44379023    -0.74500
O1165       O  0.21902345  0.26989703  0.41314008    -0.74500
O1166       O  0.21060355  0.32139778  0.42593839    -0.74600
O1167       O  0.18319964  0.31376789  0.43954772    -0.74500
O1168       O  0.19059300  0.26202748  0.42429890    -0.74500
O1169       O  0.19874524  0.28260407  0.45601671    -0.74400
O1170       O  0.17482126  0.29268779  0.40874727    -0.74500
Ni1171     Ni  0.21579406  0.29583117  0.41933895     1.25400
Ni1172     Ni  0.18586528  0.28748037  0.43273954     1.25400
C1173       C  0.18491559  0.29744534  0.39449911     0.87800
C1174       C  0.21652288  0.28548805  0.45770267     0.87700
C1175       C  0.20576754  0.25778625  0.41524559     0.87700
C1176       C  0.19541888  0.32625576  0.43448213     0.87900
O1177       O  0.69132503  0.30879132  0.13560083    -0.74400
O1178       O  0.72373751  0.29568664  0.09394633    -0.74500
O1179       O  0.70600370  0.32763144  0.10575842    -0.74500
O1180       O  0.70931360  0.27701176  0.12396178    -0.74600
O1181       O  0.68441922  0.26876612  0.10637786    -0.74500
O1182       O  0.68026314  0.31994357  0.08916285    -0.74500
O1183       O  0.69838511  0.28893371  0.07670865    -0.74400
O1184       O  0.66624342  0.29997739  0.11871090    -0.74500
Ni1185     Ni  0.70851271  0.30254994  0.11543058     1.25400
Ni1186     Ni  0.68143822  0.29409861  0.09712125     1.25400
C1187       C  0.67338918  0.30651920  0.13398735     0.87800
C1188       C  0.71636705  0.29036171  0.07827768     0.87700
C1189       C  0.69252281  0.33211255  0.09458434     0.87700
C1190       C  0.69744600  0.26463037  0.11824841     0.87900
O1191       O  0.61685258  0.34420757  0.28746309    -0.74400
O1192       O  0.57197100  0.31486223  0.28037482    -0.74500
O1193       O  0.60009178  0.32730436  0.25770884    -0.74500
O1194       O  0.58923951  0.33135826  0.31016348    -0.74600
O1195       O  0.57316085  0.35806632  0.30511601    -0.74500
O1196       O  0.58362366  0.35356313  0.25167788    -0.74500
O1197       O  0.55558238  0.34133274  0.27552889    -0.74400
O1198       O  0.60060623  0.37053286  0.28136878    -0.74500
Ni1199     Ni  0.59507127  0.32849579  0.28406870     1.25400
Ni1200     Ni  0.57758450  0.35681769  0.27817370     1.25400
C1201       C  0.61609114  0.36222457  0.28564104     0.87800
C1202       C  0.55625059  0.32333021  0.27728704     0.87700
C1203       C  0.59408112  0.33978358  0.24612259     0.87700
C1204       C  0.57982791  0.34546868  0.31637473     0.87900
O1205       O  0.72363175  0.14792339  0.21117826    -0.74400
O1206       O  0.73459044  0.10313320  0.23987837    -0.74500
O1207       O  0.75479414  0.13390373  0.22887773    -0.74500
O1208       O  0.70374056  0.11752266  0.22212069    -0.74600
O1209       O  0.71162807  0.10304340  0.19561345    -0.74500
O1210       O  0.76321268  0.11842495  0.20266326    -0.74500
O1211       O  0.74180431  0.08792947  0.21336439    -0.74400
O1212       O  0.73264372  0.13316920  0.18487554    -0.74500
Ni1213     Ni  0.72897687  0.12612934  0.22647664     1.25400
Ni1214     Ni  0.73771204  0.11009653  0.19821019     1.25400
C1215       C  0.72592663  0.14780534  0.19319119     0.87800
C1216       C  0.73929704  0.08785568  0.23132660     0.87700
C1217       C  0.76735326  0.12901314  0.21676731     0.87700
C1218       C  0.69895677  0.10785884  0.20757301     0.87900
O1219       O  0.88905256  0.21579895  0.23457138    -0.74400
O1220       O  0.93430396  0.24481575  0.24268461    -0.74500
O1221       O  0.91748771  0.22854846  0.21247697    -0.74500
O1222       O  0.90548151  0.23262418  0.26447950    -0.74600
O1223       O  0.92185816  0.20635743  0.27077391    -0.74500
O1224       O  0.93288544  0.20149213  0.21783462    -0.74500
O1225       O  0.95015406  0.21802746  0.24749477    -0.74400
O1226       O  0.90506962  0.18941168  0.24109187    -0.74500
Ni1227     Ni  0.91104777  0.23142052  0.23834656     1.25400
Ni1228     Ni  0.92812222  0.20289279  0.24452799     1.25400
C1229       C  0.88967976  0.19776570  0.23662245     0.87800
C1230       C  0.94977343  0.23605713  0.24630343     0.87700
C1231       C  0.92668332  0.21421045  0.20650045     0.87700
C1232       C  0.91136621  0.22016057  0.27611992     0.87900
O1233       O  0.81273510  0.24291100  0.38699845    -0.74400
O1234       O  0.78020414  0.25669699  0.42829091    -0.74500
O1235       O  0.79638956  0.27515716  0.39904406    -0.74500
O1236       O  0.79612189  0.22418559  0.41580194    -0.74600
O1237       O  0.82198904  0.22959138  0.43306982    -0.74500
O1238       O  0.82117816  0.28161573  0.41749720    -0.74500
O1239       O  0.80558847  0.26140919  0.44628341    -0.74400
O1240       O  0.83781473  0.24994398  0.40468285    -0.74500
Ni1241     Ni  0.79544046  0.24954628  0.40692093     1.25400
Ni1242     Ni  0.82253681  0.25585957  0.42606918     1.25400
C1243       C  0.83070638  0.24442156  0.38902024     0.87800
C1244       C  0.78761627  0.26103609  0.44425239     0.87700
C1245       C  0.80874768  0.28671353  0.40533937     0.87700
C1246       C  0.80919980  0.21836327  0.42679433     0.87900
O1247       O  0.78430757  0.40172377  0.31151193    -0.74400
O1248       O  0.77212214  0.44637520  0.28325357    -0.74500
O1249       O  0.80419910  0.43110062  0.29806237    -0.74500
O1250       O  0.75233394  0.41670279  0.29627169    -0.74600
O1251       O  0.74657921  0.43290486  0.32279978    -0.74500
O1252       O  0.79903848  0.44590802  0.32550597    -0.74500
O1253       O  0.76803201  0.46191199  0.31031179    -0.74400
O1254       O  0.77775138  0.41712476  0.33824760    -0.74500
Ni1255     Ni  0.77840712  0.42340816  0.29627756     1.25400
Ni1256     Ni  0.77262432  0.44002501  0.32515988     1.25400
C1257       C  0.78341897  0.40228977  0.32963030     0.87800
C1258       C  0.76806814  0.46158778  0.29224118     0.87700
C1259       C  0.81022857  0.44033552  0.31237092     0.87700
C1260       C  0.74092029  0.42269237  0.30897206     0.87900
O1261       O  0.81508211  0.80376085  0.13481448    -0.74400
O1262       O  0.78364912  0.79050862  0.09263189    -0.74500
O1263       O  0.79857708  0.77190340  0.12255492    -0.74500
O1264       O  0.80016502  0.82279699  0.10569258    -0.74600
O1265       O  0.82622731  0.81671386  0.08918428    -0.74500
O1266       O  0.82342469  0.76480268  0.10444535    -0.74500
O1267       O  0.80940598  0.78547957  0.07534813    -0.74400
O1268       O  0.84051193  0.79574616  0.11826735    -0.74500
Ni1269     Ni  0.79840565  0.79747300  0.11444633     1.25400
Ni1270     Ni  0.82581017  0.79048806  0.09614749     1.25400
C1271       C  0.83299916  0.80123362  0.13381052     0.87800
C1272       C  0.79136916  0.78589285  0.07685639     0.87700
C1273       C  0.81082538  0.76002866  0.11659398     0.87700
C1274       C  0.81371634  0.82842223  0.09512464     0.87900
O1275       O  0.73114496  0.89645146  0.31070904    -0.74400
O1276       O  0.73835302  0.94416339  0.28528393    -0.74500
O1277       O  0.76142864  0.91603690  0.29819636    -0.74500
O1278       O  0.70805878  0.92446209  0.29754676    -0.74600
O1279       O  0.71003408  0.93851150  0.32563061    -0.74500
O1280       O  0.76376686  0.93068122  0.32604034    -0.74500
O1281       O  0.74019243  0.95860249  0.31324938    -0.74400
O1282       O  0.73342745  0.91118076  0.33852116    -0.74500
Ni1283     Ni  0.73471087  0.91977870  0.29692205     1.25400
Ni1284     Ni  0.73695438  0.93530979  0.32681672     1.25400
C1285       C  0.73125816  0.89603426  0.32886635     0.87800
C1286       C  0.73994871  0.95931499  0.29514187     0.87700
C1287       C  0.77127861  0.92136135  0.31241056     0.87700
C1288       C  0.70017625  0.93290016  0.31148831     0.87900
O1289       O  0.88822850  0.82744776  0.29675289    -0.74400
O1290       O  0.93248596  0.79702328  0.28685477    -0.74500
O1291       O  0.91804344  0.81562216  0.31725042    -0.74500
O1292       O  0.90209772  0.80867164  0.26641965    -0.74600
O1293       O  0.91841227  0.83416919  0.25758110    -0.74500
O1294       O  0.93405822  0.84122105  0.30909003    -0.74500
O1295       O  0.94833145  0.82302806  0.27893854    -0.74400
O1296       O  0.90428176  0.85305385  0.28783564    -0.74500
Ni1297     Ni  0.90967464  0.81124212  0.29208339     1.25400
Ni1298     Ni  0.92681695  0.83878485  0.28302346     1.25400
C1299       C  0.88907923  0.84537758  0.29404236     0.87800
C1300       C  0.94787690  0.80514111  0.28154403     0.87700
C1301       C  0.92869986  0.82942783  0.32180885     0.87700
C1302       C  0.90737569  0.82032281  0.25363350     0.87900
O1303       O  0.79740004  0.64359648  0.21161305    -0.74400
O1304       O  0.77772607  0.60322972  0.24168229    -0.74500
O1305       O  0.81182947  0.61156162  0.22629396    -0.74500
O1306       O  0.76332188  0.63569928  0.22704989    -0.74600
O1307       O  0.75468813  0.61966956  0.20129853    -0.74500
O1308       O  0.80405325  0.59688339  0.19948521    -0.74500
O1309       O  0.77060588  0.58744954  0.21534764    -0.74400
O1310       O  0.78800494  0.62876858  0.18551475    -0.74500
Ni1311     Ni  0.78781132  0.62404013  0.22763052     1.25400
Ni1312     Ni  0.77902044  0.60757623  0.19950688     1.25400
C1313       C  0.79550527  0.64307540  0.19361714     0.87800
C1314       C  0.77152926  0.58838556  0.23339560     0.87700
C1315       C  0.81611488  0.60065812  0.21248766     0.87700
C1316       C  0.75119876  0.63202699  0.21410954     0.87900
O1317       O  0.71570467  0.73095208  0.38600075    -0.74400
O1318       O  0.74378849  0.74312161  0.43055633    -0.74500
O1319       O  0.72676459  0.71172219  0.41729911    -0.74500
O1320       O  0.73254356  0.76263665  0.39921154    -0.74600
O1321       O  0.70612333  0.77104599  0.41440326    -0.74500
O1322       O  0.69965638  0.72006226  0.43123833    -0.74500
O1323       O  0.71698017  0.75058700  0.44542017    -0.74400
O1324       O  0.68915594  0.74018679  0.40026592    -0.74500
Ni1325     Ni  0.73068351  0.73684850  0.40774800     1.25400
Ni1326     Ni  0.70205019  0.74578575  0.42336954     1.25400
C1327       C  0.69786580  0.73404564  0.38558338     0.87800
C1328       C  0.73493283  0.74803203  0.44558862     0.87700
C1329       C  0.71226662  0.70764104  0.42742580     0.87700
C1330       C  0.71997759  0.77504025  0.40341939     0.87900
O1331       O  0.63291114  0.73069936  0.22259013    -0.74400
O1332       O  0.58713730  0.75550829  0.23885934    -0.74500
O1333       O  0.62073731  0.74555996  0.25544915    -0.74500
O1334       O  0.59993898  0.74079614  0.20572372    -0.74600
O1335       O  0.58730312  0.71296758  0.21353212    -0.74500
O1336       O  0.60818630  0.71775059  0.26340291    -0.74500
O1337       O  0.57494870  0.72772892  0.24702792    -0.74400
O1338       O  0.62015949  0.70297691  0.23053240    -0.74500
Ni1339     Ni  0.61052068  0.74420202  0.23039476     1.25400
Ni1340     Ni  0.59710951  0.71443054  0.23889393     1.25400
C1341       C  0.63414429  0.71267693  0.22427145     0.87800
C1342       C  0.57343235  0.74574903  0.24563546     0.87700
C1343       C  0.61875892  0.73196110  0.26725546     0.87700
C1344       C  0.59076751  0.72585664  0.20121901     0.87900
C1345       C  0.62999916  0.73193525  0.28493603     0.01300
C1346       C  0.64065851  0.71567711  0.28978618     0.04200
C1347       C  0.65201925  0.71569723  0.30607370    -0.11900
C1348       C  0.65315280  0.73198909  0.31738773     0.23500
C1349       C  0.64302806  0.74836228  0.31242766    -0.12500
C1350       C  0.63141634  0.74833789  0.29629244     0.04900
C1351       C  0.66493238  0.73179115  0.33464123     0.27300
C1352       C  0.65716650  0.72531725  0.35178064    -0.13200
C1353       C  0.66834817  0.72478319  0.36818669     0.05400
C1354       C  0.68720830  0.73152841  0.36769567    -0.09100
C1355       C  0.69506127  0.73770421  0.35024370     0.06200
C1356       C  0.68388983  0.73776545  0.33379618    -0.13500
Br1357     Br  0.64530536  0.77084919  0.32779386    -0.05600
Br1358     Br  0.64117078  0.69370594  0.27352628     0.00100
Br1359     Br  0.65784026  0.71390159  0.39098855     0.00500
Br1360     Br  0.69421052  0.74672058  0.31008154    -0.03900
Br1361     Br  0.61726695  0.77075806  0.29033860     0.00600
Br1362     Br  0.66643125  0.69350965  0.31286078    -0.03200
Br1363     Br  0.63092311  0.71771410  0.35273271    -0.04100
Br1364     Br  0.72058092  0.74751942  0.34860515    -0.00100
C1365       C  0.65202801  0.70264118  0.21963857     0.01300
C1366       C  0.65140740  0.68554502  0.20929896     0.04200
C1367       C  0.66770310  0.67421548  0.20761297    -0.11900
C1368       C  0.68492977  0.68016438  0.21561954     0.23500
C1369       C  0.68591594  0.69774348  0.22497065    -0.12500
C1370       C  0.66947967  0.70885762  0.22723909     0.04900
C1371       C  0.70171810  0.66745020  0.21495132     0.27300
C1372       C  0.70547416  0.65519400  0.23023565    -0.13200
C1373       C  0.72137714  0.64318366  0.22975142     0.05400
C1374       C  0.73329454  0.64291628  0.21371905    -0.09100
C1375       C  0.72895142  0.65448995  0.19799912     0.06200
C1376       C  0.71349600  0.66707714  0.19883956    -0.13500
Br1377     Br  0.70976607  0.70621863  0.23519176    -0.05600
Br1378     Br  0.62829660  0.67766288  0.19705323     0.00100
Br1379     Br  0.72645236  0.62651784  0.25077319     0.00500
Br1380     Br  0.70869399  0.68427544  0.17819050    -0.03900
Br1381     Br  0.67079936  0.73168841  0.24219695     0.00600
Br1382     Br  0.66633295  0.65005178  0.19501288    -0.03200
Br1383     Br  0.68866688  0.65484384  0.25178990    -0.04100
Br1384     Br  0.74437211  0.65356533  0.17542891    -0.00100
C1385       C  0.79128281  0.91533809  0.31320918     0.01300
C1386       C  0.80291574  0.91792013  0.29719343     0.04200
C1387       C  0.81969722  0.90741305  0.29522963    -0.11900
C1388       C  0.82493328  0.89433135  0.30931603     0.23500
C1389       C  0.81435536  0.89317042  0.32620850    -0.12500
C1390       C  0.79763778  0.90384046  0.32827940     0.04900
C1391       C  0.84120817  0.88143719  0.30602059     0.27300
C1392       C  0.83862628  0.86454003  0.29576175    -0.13200
C1393       C  0.85416064  0.85259084  0.29197350     0.05400
C1394       C  0.87246047  0.85757657  0.29835386    -0.09100
C1395       C  0.87489509  0.87457652  0.30868762     0.06200
C1396       C  0.85930478  0.88634691  0.31258529    -0.13500
Br1397     Br  0.82232618  0.87622079  0.34606155    -0.05600
Br1398     Br  0.79579753  0.93600742  0.27802332     0.00100
Br1399     Br  0.85033276  0.83006362  0.27701293     0.00500
Br1400     Br  0.86259795  0.90936135  0.32691683    -0.03900
Br1401     Br  0.78295429  0.90157635  0.35126104     0.00600
Br1402     Br  0.83519378  0.91033248  0.27292196    -0.03200
Br1403     Br  0.81371450  0.85803779  0.28663402    -0.04100
Br1404     Br  0.89941110  0.88181856  0.31816224    -0.00100
C1405       C  0.72890429  0.87796004  0.33918313     0.01300
C1406       C  0.74237772  0.86332821  0.33728216     0.04200
C1407       C  0.74115772  0.84708867  0.34881698    -0.11900
C1408       C  0.72643937  0.84535987  0.36222248     0.23500
C1409       C  0.71280003  0.85982530  0.36387235    -0.12500
C1410       C  0.71392721  0.87597265  0.35226902     0.04900
C1411       C  0.72444201  0.82774051  0.37357631     0.27300
C1412       C  0.71090679  0.81414928  0.36821477    -0.13200
C1413       C  0.70845000  0.79770522  0.37908425     0.05400
C1414       C  0.72073402  0.79380366  0.39428422    -0.09100
C1415       C  0.73414367  0.80742838  0.39986121     0.06200
C1416       C  0.73567757  0.82461292  0.38979267    -0.13500
Br1417     Br  0.69252501  0.85744411  0.38207852    -0.05600
Br1418     Br  0.76276668  0.86560246  0.31921818     0.00100
Br1419     Br  0.68775521  0.78093026  0.37340213     0.00500
Br1420     Br  0.75296793  0.84392314  0.39822838    -0.03900
Br1421     Br  0.69431253  0.89495160  0.35355246     0.00600
Br1422     Br  0.75960175  0.82710182  0.34628535    -0.03200
Br1423     Br  0.69609302  0.81777450  0.34556288    -0.04100
Br1424     Br  0.74968192  0.80280200  0.42177636    -0.00100
C1425       C  0.81063723  0.74085741  0.12467468     0.01300
C1426       C  0.82747639  0.73295754  0.13206283     0.04200
C1427       C  0.82667835  0.71608373  0.14252718    -0.11900
C1428       C  0.80919497  0.70704317  0.14541981     0.23500
C1429       C  0.79254933  0.71439655  0.13740541    -0.12500
C1430       C  0.79318887  0.73139441  0.12722158     0.04900
C1431       C  0.80786421  0.69072126  0.15828476     0.27300
C1432       C  0.81128967  0.67237826  0.15151352    -0.13200
C1433       C  0.80848066  0.65676361  0.16347701     0.05400
C1434       C  0.80125700  0.65949431  0.18201139    -0.09100
C1435       C  0.79815829  0.67810636  0.18879426     0.06200
C1436       C  0.80196138  0.69364100  0.17705442    -0.13500
Br1437     Br  0.76870593  0.70152173  0.14125579    -0.05600
Br1438     Br  0.85141368  0.74601618  0.12979616     0.00100
Br1439     Br  0.81504174  0.63186260  0.15424862     0.00500
Br1440     Br  0.79835002  0.71911947  0.18633420    -0.03900
Br1441     Br  0.76990628  0.74179619  0.11731100     0.00600
Br1442     Br  0.84925332  0.70588333  0.15403464    -0.03200
Br1443     Br  0.81913306  0.66878508  0.12556498    -0.04100
Br1444     Br  0.78699216  0.68288799  0.21336182    -0.00100
C1445       C  0.84504672  0.80415764  0.15095626     0.01300
C1446       C  0.83710548  0.80230734  0.16941875     0.04200
C1447       C  0.84843981  0.80510404  0.18551493    -0.11900
C1448       C  0.86784019  0.80889589  0.18352807     0.23500
C1449       C  0.87602390  0.81020082  0.16548347    -0.12500
C1450       C  0.86473813  0.80819524  0.14922149     0.04900
C1451       C  0.87957138  0.81202537  0.20054671     0.27300
C1452       C  0.88175224  0.83045150  0.20771699    -0.13200
C1453       C  0.89160757  0.83340720  0.22471397     0.05400
C1454       C  0.89978697  0.81789445  0.23432287    -0.09100
C1455       C  0.89855038  0.79956165  0.22640185     0.06200
C1456       C  0.88806502  0.79659406  0.20979126    -0.13500
Br1457     Br  0.90291221  0.81489119  0.16331231    -0.05600
Br1458     Br  0.81105120  0.79482422  0.17357196     0.00100
Br1459     Br  0.89230451  0.85854384  0.23537675     0.00500
Br1460     Br  0.88457475  0.77131655  0.20005958    -0.03900
Br1461     Br  0.87692475  0.81182697  0.12499043     0.00600
Br1462     Br  0.83749190  0.80379986  0.21059184    -0.03200
Br1463     Br  0.87039075  0.85150153  0.19454184    -0.04100
Br1464     Br  0.91156983  0.77847061  0.23794555    -0.00100
C1465       C  0.76635126  0.57155065  0.24455275     0.01300
C1466       C  0.77878464  0.56477269  0.25867958     0.04200
C1467       C  0.77569533  0.54691731  0.26677533    -0.11900
C1468       C  0.76056968  0.53563949  0.26047803     0.23500
C1469       C  0.74753395  0.54274202  0.24728374    -0.12500
C1470       C  0.75025540  0.56081879  0.23949733     0.04900
C1471       C  0.75960965  0.51574199  0.26660353     0.27300
C1472       C  0.77064955  0.50217158  0.25711391    -0.13200
C1473       C  0.77308638  0.48409654  0.26500015     0.05400
C1474       C  0.76354965  0.47928671  0.28198918    -0.09100
C1475       C  0.75068304  0.49238518  0.29014864     0.06200
C1476       C  0.74931435  0.51078811  0.28285004    -0.13500
Br1477     Br  0.72658837  0.52721715  0.23924208    -0.05600
Br1478     Br  0.80123712  0.57869436  0.26575948     0.00100
Br1479     Br  0.79084297  0.46704129  0.25307353     0.00500
Br1480     Br  0.73423042  0.52964041  0.29565115    -0.03900
Br1481     Br  0.73188336  0.57076418  0.22190337     0.00600
Br1482     Br  0.79282528  0.53725104  0.28576792    -0.03200
Br1483     Br  0.78321483  0.50891481  0.23374141    -0.04100
Br1484     Br  0.73440341  0.48536996  0.31106444    -0.00100
C1485       C  0.78964095  0.38592471  0.34097274     0.01300
C1486       C  0.80122101  0.38883197  0.35707348     0.04200
C1487       C  0.80640902  0.37343684  0.36847989    -0.11900
C1488       C  0.80078288  0.35507528  0.36345026     0.23500
C1489       C  0.79005141  0.35199494  0.34696410    -0.12500
C1490       C  0.78405545  0.36742137  0.33598582     0.04900
C1491       C  0.80427799  0.33916283  0.37647508     0.27300
C1492       C  0.82156747  0.32925909  0.37597136    -0.13200
C1493       C  0.82367227  0.31260760  0.38665114     0.05400
C1494       C  0.80847406  0.30602284  0.39782740    -0.09100
C1495       C  0.79160421  0.31657028  0.39910148     0.06200
C1496       C  0.78955089  0.33318149  0.38850308    -0.13500
Br1497     Br  0.78297873  0.32655591  0.33994020    -0.05600
Br1498     Br  0.81058117  0.41371168  0.36357279     0.00100
Br1499     Br  0.84655391  0.29784400  0.38435562     0.00500
Br1500     Br  0.76613994  0.34726772  0.38956698    -0.03900
Br1501     Br  0.76674760  0.36313004  0.31530666     0.00600
Br1502     Br  0.82061025  0.37745426  0.39145469    -0.03200
Br1503     Br  0.84183997  0.33793635  0.35981318    -0.04100
Br1504     Br  0.77094239  0.30781411  0.41476652    -0.00100
C1505       C  0.90462989  0.22160374  0.29566152     0.01300
C1506       C  0.90658660  0.23895975  0.30527670     0.04200
C1507       C  0.89549868  0.24266793  0.32134767    -0.11900
C1508       C  0.88255247  0.22896558  0.32780873     0.23500
C1509       C  0.88138435  0.21122093  0.31885477    -0.12500
C1510       C  0.89253760  0.20745808  0.30284920     0.04900
C1511       C  0.86950595  0.23338196  0.34351176     0.27300
C1512       C  0.87388436  0.22740911  0.36192951    -0.13200
C1513       C  0.86090376  0.23040270  0.37669264     0.05400
C1514       C  0.84363889  0.23997308  0.37314104    -0.09100
C1515       C  0.83938156  0.24605350  0.35453800     0.06200
C1516       C  0.85228995  0.24264065  0.33976872    -0.13500
Br1517     Br  0.86333880  0.19268465  0.32767996    -0.05600
Br1518     Br  0.92399444  0.25788828  0.29592200     0.00100
Br1519     Br  0.86662811  0.22020279  0.40141600     0.00500
Br1520     Br  0.84653906  0.25065439  0.31426908    -0.03900
Br1521     Br  0.88967244  0.18367262  0.28973386     0.00600
Br1522     Br  0.89706246  0.26691746  0.33376246    -0.03200
Br1523     Br  0.89777371  0.21501922  0.36672566    -0.04100
Br1524     Br  0.81638188  0.25977875  0.34903106    -0.00100
C1525       C  0.74107048  0.06966894  0.24210115     0.01300
C1526       C  0.72921436  0.06586993  0.25795238     0.04200
C1527       C  0.72985093  0.04808752  0.26701368    -0.11900
C1528       C  0.74155795  0.03360953  0.25994940     0.23500
C1529       C  0.75339527  0.03724975  0.24432769    -0.12500
C1530       C  0.75367623  0.05531755  0.23584593     0.04900
C1531       C  0.74128938  0.01446366  0.26884709     0.27300
C1532       C  0.75525860  0.00935103  0.28211062    -0.13200
C1533       C  0.75516980  0.99115718  0.29031382     0.05400
C1534       C  0.74084218  0.97803795  0.28560253    -0.09100
C1535       C  0.72663815  0.98333620  0.27255996     0.06200
C1536       C  0.72699200  0.00140089  0.26409310    -0.13500
Br1537     Br  0.76883875  0.01709961  0.23421632    -0.05600
Br1538     Br  0.71097713  0.08417196  0.26700438     0.00100
Br1539     Br  0.77510589  0.98408019  0.30755320     0.00500
Br1540     Br  0.70765733  0.00849917  0.24617894    -0.03900
Br1541     Br  0.77226886  0.06028893  0.21635905     0.00600
Br1542     Br  0.71434880  0.04324344  0.28904463    -0.03200
Br1543     Br  0.77427936  0.02754821  0.28929711    -0.04100
Br1544     Br  0.70583318  0.96645115  0.26720533    -0.00100
C1545       C  0.87250625  0.18619001  0.23383711     0.01300
C1546       C  0.87323953  0.16996271  0.22214808     0.04200
C1547       C  0.85706347  0.15859243  0.21987714    -0.11900
C1548       C  0.84009345  0.16342760  0.22912661     0.23500
C1549       C  0.83943301  0.17934346  0.24109812    -0.12500
C1550       C  0.85556402  0.19076184  0.24342181     0.04900
C1551       C  0.82238854  0.15304563  0.22485351     0.27300
C1552       C  0.81074654  0.15949874  0.21004717    -0.13200
C1553       C  0.79308412  0.15096152  0.20685451     0.05400
C1554       C  0.78674195  0.13634233  0.21885455    -0.09100
C1555       C  0.79849089  0.12968654  0.23351341     0.06200
C1556       C  0.81655318  0.13768702  0.23616875    -0.13500
Br1557     Br  0.81621762  0.18553573  0.25414080    -0.05600
Br1558     Br  0.89599755  0.16379988  0.20821781     0.00100
Br1559     Br  0.77715263  0.16004679  0.18667055     0.00500
Br1560     Br  0.83332971  0.12772102  0.25520593    -0.03900
Br1561     Br  0.85442861  0.21228757  0.26021667     0.00600
Br1562     Br  0.85792900  0.13653645  0.20382962    -0.03200
Br1563     Br  0.81884695  0.18054035  0.19458657    -0.04100
Br1564     Br  0.78962793  0.10990273  0.25012919    -0.00100
C1565       C  0.63332381  0.37359868  0.28865953     0.01300
C1566       C  0.65066478  0.36778721  0.28053378     0.04200
C1567       C  0.66721155  0.37816304  0.28403117    -0.11900
C1568       C  0.66656842  0.39422104  0.29574961     0.23500
C1569       C  0.64929811  0.40044172  0.30341105    -0.12500
C1570       C  0.63264618  0.39014480  0.29994455     0.04900
C1571       C  0.68439510  0.40379243  0.30076986     0.27300
C1572       C  0.69458348  0.39763952  0.31674493    -0.13200
C1573       C  0.71290560  0.40455459  0.32001576     0.05400
C1574       C  0.72091765  0.41765872  0.30733573    -0.09100
C1575       C  0.71036868  0.42451135  0.29188474     0.06200
C1576       C  0.69206384  0.41757412  0.28860492    -0.13500
Br1577     Br  0.64871382  0.42292061  0.31891009    -0.05600
Br1578     Br  0.65198481  0.34589063  0.26421098     0.00100
Br1579     Br  0.72761721  0.39488998  0.34087335     0.00500
Br1580     Br  0.67783441  0.42610655  0.26694762    -0.03900
Br1581     Br  0.60937242  0.39822215  0.31189066     0.00600
Br1582     Br  0.69096476  0.37037986  0.27289381    -0.03200
Br1583     Br  0.68379637  0.37888022  0.33343479    -0.04100
Br1584     Br  0.72119173  0.44307421  0.27498216    -0.00100
C1585       C  0.72024740  0.16455454  0.18175906     0.01300
C1586       C  0.72385889  0.18316047  0.18828854     0.04200
C1587       C  0.71849200  0.19885654  0.17724986    -0.11900
C1588       C  0.70948686  0.19614799  0.15971972     0.23500
C1589       C  0.70529734  0.17779046  0.15341828    -0.12500
C1590       C  0.71066020  0.16202548  0.16431232     0.04900
C1591       C  0.70519669  0.21262638  0.14750590     0.27300
C1592       C  0.68844553  0.22310772  0.15026354    -0.13200
C1593       C  0.68507606  0.23940782  0.13937920     0.05400
C1594       C  0.69872970  0.24551380  0.12618443    -0.09100
C1595       C  0.71500021  0.23455281  0.12275250     0.06200
C1596       C  0.71821136  0.21806629  0.13336757    -0.13500
Br1597     Br  0.69200076  0.17444070  0.12978505    -0.05600
Br1598     Br  0.73690045  0.18757102  0.21187542     0.00100
Br1599     Br  0.66223205  0.25391433  0.14317248     0.00500
Br1600     Br  0.74080945  0.20332724  0.12913344    -0.03900
Br1601     Br  0.70379929  0.13715724  0.15536262     0.00600
Br1602     Br  0.72357198  0.22425823  0.18594522    -0.03200
Br1603     Br  0.67067448  0.21570187  0.16963689    -0.04100
Br1604     Br  0.73279479  0.24220549  0.10343579    -0.00100
C1605       C  0.60055980  0.33814328  0.22638346     0.01300
C1606       C  0.59679816  0.32130022  0.21644187     0.04200
C1607       C  0.60818371  0.31609993  0.20095072    -0.11900
C1608       C  0.62343938  0.32772551  0.19546400     0.23500
C1609       C  0.62635048  0.34521887  0.20455729    -0.12500
C1610       C  0.61453875  0.35067752  0.21965077     0.04900
C1611       C  0.63612228  0.32185365  0.17978878     0.27300
C1612       C  0.65298031  0.31192228  0.18360269    -0.13200
C1613       C  0.66509740  0.30662767  0.16865745     0.05400
C1614       C  0.66060924  0.31172328  0.14982476    -0.09100
C1615       C  0.64367574  0.32179157  0.14613990     0.06200
C1616       C  0.63140526  0.32657456  0.16106998    -0.13500
Br1617     Br  0.64734614  0.36103468  0.19712264    -0.05600
Br1618     Br  0.57601781  0.30540910  0.22430724     0.00100
Br1619     Br  0.68723556  0.29152716  0.17412551     0.00500
Br1620     Br  0.60802195  0.33977708  0.15604495    -0.03900
Br1621     Br  0.61799881  0.37495416  0.23157104     0.00600
Br1622     Br  0.60351782  0.29266098  0.18781179    -0.03200
Br1623     Br  0.65942085  0.30566057  0.20939139    -0.04100
Br1624     Br  0.63746999  0.33017398  0.12086692    -0.00100
C1625       C  0.05815258  0.29022113  0.24922787     0.01300
C1626       C  0.04453967  0.29563905  0.26302469     0.04200
C1627       C  0.02723353  0.28594680  0.26438380    -0.11900
C1628       C  0.02297342  0.27147974  0.25151717     0.23500
C1629       C  0.03657706  0.26537842  0.23837699    -0.12500
C1630       C  0.05427882  0.27438255  0.23739738     0.04900
C1631       C  0.00377974  0.26327955  0.25112669     0.27300
C1632       C  0.99913310  0.24821414  0.26320836    -0.13200
C1633       C  0.98094623  0.24025867  0.26257059     0.05400
C1634       C  0.96769759  0.24656193  0.24891208    -0.09100
C1635       C  0.97243684  0.26188805  0.23690210     0.06200
C1636       C  0.99032254  0.27046396  0.23835802    -0.13500
Br1637     Br  0.03052235  0.24486542  0.22133498    -0.05600
Br1638     Br  0.04892299  0.31621330  0.28038669     0.00100
Br1639     Br  0.97423022  0.22130733  0.28113966     0.00500
Br1640     Br  0.99677802  0.29182079  0.22251628    -0.03900
Br1641     Br  0.07221817  0.26504463  0.21882671     0.00600
Br1642     Br  0.00907289  0.29242700  0.28382710    -0.03200
Br1643     Br  0.01800417  0.23822432  0.28024231    -0.04100
Br1644     Br  0.95533078  0.27050922  0.21742540    -0.00100
C1645       C  0.12826707  0.31466807  0.28901738     0.01300
C1646       C  0.14791454  0.31082419  0.28956899     0.04200
C1647       C  0.15692510  0.30774105  0.30696985    -0.11900
C1648       C  0.14657656  0.30914681  0.32390123     0.23500
C1649       C  0.12713417  0.31337454  0.32352969    -0.12500
C1650       C  0.11795262  0.31608462  0.30611524     0.04900
C1651       C  0.15628675  0.30618551  0.34210961     0.27300
C1652       C  0.15616257  0.28816025  0.35055654    -0.13200
C1653       C  0.16573494  0.28523117  0.36768401     0.05400
C1654       C  0.17557936  0.30032333  0.37623707    -0.09100
C1655       C  0.17598952  0.31826540  0.36759151     0.06200
C1656       C  0.16626229  0.32121198  0.35054732    -0.13500
Br1657     Br  0.11310721  0.31507985  0.34696401    -0.05600
Br1658     Br  0.16300409  0.31088915  0.26672408     0.00100
Br1659     Br  0.16597880  0.26033326  0.37894303     0.00500
Br1660     Br  0.16663666  0.34576087  0.33861200    -0.03900
Br1661     Br  0.09115686  0.32091877  0.30599503     0.00600
Br1662     Br  0.18348217  0.30130519  0.30778255    -0.03200
Br1663     Br  0.14319197  0.26746018  0.33836133    -0.04100
Br1664     Br  0.18934561  0.33894773  0.37938904    -0.00100
C1665       C  0.53847489  0.31228988  0.27642835     0.01300
C1666       C  0.53486382  0.29803761  0.29005587     0.04200
C1667       C  0.51755495  0.28823720  0.28990143    -0.11900
C1668       C  0.50377888  0.29257884  0.27622250     0.23500
C1669       C  0.50722884  0.30678753  0.26270806    -0.12500
C1670       C  0.52456407  0.31656095  0.26268832     0.04900
C1671       C  0.48573836  0.28192815  0.27585616     0.27300
C1672       C  0.48347671  0.26688730  0.26311659    -0.13200
C1673       C  0.46643831  0.25663272  0.26271312     0.05400
C1674       C  0.45206916  0.26018532  0.27640645    -0.09100
C1675       C  0.45428776  0.27594537  0.28881829     0.06200
C1676       C  0.47093842  0.28689124  0.28817401    -0.13500
Br1677     Br  0.48796236  0.31287973  0.24433834    -0.05600
Br1678     Br  0.55298342  0.29237196  0.30974380     0.00100
Br1679     Br  0.46302074  0.23866510  0.24236077     0.00500
Br1680     Br  0.47392998  0.30860904  0.30453276    -0.03900
Br1681     Br  0.52928435  0.33516732  0.24320302     0.00600
Br1682     Br  0.51246613  0.26899814  0.30866110    -0.03200
Br1683     Br  0.50422903  0.25996027  0.24663529    -0.04100
Br1684     Br  0.43538810  0.28298968  0.30740329    -0.00100
C1685       C  0.29002646  0.12897115  0.31948964     0.01300
C1686       C  0.29069936  0.14834682  0.31448305     0.04200
C1687       C  0.30806097  0.15699954  0.31038088    -0.11900
C1688       C  0.32497912  0.14671233  0.31218443     0.23500
C1689       C  0.32457151  0.12775077  0.31827976    -0.12500
C1690       C  0.30708380  0.11882370  0.32194018     0.04900
C1691       C  0.34305003  0.15647930  0.30819409     0.27300
C1692       C  0.34955682  0.15793889  0.28941580    -0.13200
C1693       C  0.36396488  0.17087266  0.28483280     0.05400
C1694       C  0.37223189  0.18203594  0.29919465    -0.09100
C1695       C  0.36653727  0.17956553  0.31822645     0.06200
C1696       C  0.35186442  0.16689425  0.32265716    -0.13500
Br1697     Br  0.34801373  0.11413174  0.32130732    -0.05600
Br1698     Br  0.26806589  0.16375074  0.31458930     0.00100
Br1699     Br  0.37087080  0.17447159  0.25859324     0.00500
Br1700     Br  0.34300226  0.16444539  0.34840602    -0.03900
Br1701     Br  0.30668560  0.09274054  0.32991749     0.00600
Br1702     Br  0.30875046  0.18308699  0.30210167    -0.03200
Br1703     Br  0.33786806  0.14292392  0.26986652    -0.04100
Br1704     Br  0.37872943  0.19338165  0.33839761    -0.00100
C1705       C  0.22572024  0.15455950  0.35548386     0.01300
C1706       C  0.20821519  0.16379059  0.35274405     0.04200
C1707       C  0.20371980  0.17983479  0.36353220    -0.11900
C1708       C  0.21650517  0.18642378  0.37726637     0.23500
C1709       C  0.23366997  0.17688483  0.38046751    -0.12500
C1710       C  0.23839397  0.16105641  0.36947757     0.04900
C1711       C  0.21287370  0.20451441  0.38695276     0.27300
C1712       C  0.21828979  0.22138210  0.37799248    -0.13200
C1713       C  0.21546919  0.23873630  0.38710655     0.05400
C1714       C  0.20777029  0.23926922  0.40567756    -0.09100
C1715       C  0.20184956  0.22224246  0.41440467     0.06200
C1716       C  0.20438614  0.20488845  0.40496377    -0.13500
Br1717     Br  0.25090650  0.18593772  0.39960025    -0.05600
Br1718     Br  0.18994553  0.15415594  0.33485081     0.00100
Br1719     Br  0.22102655  0.26161193  0.37306472     0.00500
Br1720     Br  0.19643084  0.18147100  0.41655894    -0.03900
Br1721     Br  0.26276890  0.14912276  0.37295478     0.00600
Br1722     Br  0.18025852  0.19315515  0.35929038    -0.03200
Br1723     Br  0.22966896  0.22055971  0.35306207    -0.04100
Br1724     Br  0.19074512  0.22227165  0.43935753    -0.00100
C1725       C  0.15005620  0.35265727  0.22386368     0.01300
C1726       C  0.15609791  0.36712050  0.23630249     0.04200
C1727       C  0.17166733  0.37849530  0.23150448    -0.11900
C1728       C  0.18142038  0.37542007  0.21443119     0.23500
C1729       C  0.17552732  0.36111270  0.20195521    -0.12500
C1730       C  0.16008498  0.34948701  0.20674792     0.04900
C1731       C  0.19924639  0.38574635  0.21085339     0.27300
C1732       C  0.19906769  0.40368655  0.20225776    -0.13200
C1733       C  0.21591218  0.41426668  0.20084823     0.05400
C1734       C  0.23312715  0.40660451  0.20765001    -0.09100
C1735       C  0.23328927  0.38792277  0.21508332     0.06200
C1736       C  0.21633124  0.37782351  0.21712268    -0.13500
Br1737     Br  0.18893008  0.35743647  0.17839254    -0.05600
Br1738     Br  0.14444814  0.37038588  0.26087263     0.00100
Br1739     Br  0.21483145  0.43946097  0.19037266     0.00500
Br1740     Br  0.21629569  0.35312871  0.22897994    -0.03900
Br1741     Br  0.15316170  0.32928790  0.18965478     0.00600
Br1742     Br  0.18022615  0.39798447  0.24862646    -0.03200
Br1743     Br  0.17553915  0.41372321  0.19277207    -0.04100
Br1744     Br  0.25661291  0.37512857  0.22154076    -0.00100
C1745       C  0.29925231  0.38579473  0.17458138     0.01300
C1746       C  0.30269325  0.36795841  0.18327401     0.04200
C1747       C  0.30338079  0.35145052  0.17218510    -0.11900
C1748       C  0.30313574  0.35271762  0.15235047     0.23500
C1749       C  0.30229185  0.37040869  0.14348381    -0.12500
C1750       C  0.29966705  0.38685209  0.15432198     0.04900
C1751       C  0.30350184  0.33538810  0.14068896     0.27300
C1752       C  0.32046653  0.32518524  0.13848232    -0.13200
C1753       C  0.32044250  0.30792911  0.12864732     0.05400
C1754       C  0.30349478  0.30128862  0.12032323    -0.09100
C1755       C  0.28700630  0.31254638  0.12099407     0.06200
C1756       C  0.28682612  0.32920213  0.13173395    -0.13500
Br1757     Br  0.30439123  0.37180590  0.11616288    -0.05600
Br1758     Br  0.30754086  0.36527072  0.21005396     0.00100
Br1759     Br  0.34332968  0.29293926  0.12832578     0.00500
Br1760     Br  0.26346581  0.34304965  0.13495072    -0.03900
Br1761     Br  0.29686535  0.41024370  0.14019465     0.00600
Br1762     Br  0.30384943  0.32683212  0.18412980    -0.03200
Br1763     Br  0.34355960  0.33457858  0.14964853    -0.04100
Br1764     Br  0.26466726  0.30539146  0.10692369    -0.00100
C1765       C  0.32475143  0.23861204  0.15659836     0.01300
C1766       C  0.32239185  0.25314235  0.17007543     0.04200
C1767       C  0.33317090  0.25302826  0.18675615    -0.11900
C1768       C  0.34550687  0.23784462  0.19049298     0.23500
C1769       C  0.34717069  0.22285865  0.17743626    -0.12500
C1770       C  0.33716361  0.22347967  0.16028275     0.04900
C1771       C  0.35694539  0.23765931  0.20802280     0.27300
C1772       C  0.37620581  0.24277987  0.20734332    -0.13200
C1773       C  0.38753322  0.24091197  0.22357168     0.05400
C1774       C  0.37952366  0.23432745  0.24061886    -0.09100
C1775       C  0.35990902  0.23053021  0.24161591     0.06200
C1776       C  0.34871095  0.23190143  0.22524611    -0.13500
Br1777     Br  0.36326990  0.20154833  0.18306559    -0.05600
Br1778     Br  0.30501761  0.27368427  0.16541935     0.00100
Br1779     Br  0.41383654  0.24809554  0.22266500     0.00500
Br1780     Br  0.32217153  0.22540439  0.22619762    -0.03900
Br1781     Br  0.34035860  0.20356130  0.14188579     0.00600
Br1782     Br  0.33168503  0.27403519  0.20412946    -0.03200
Br1783     Br  0.38695258  0.25238514  0.18411735    -0.04100
Br1784     Br  0.34833094  0.22282729  0.26516924    -0.00100
C1785       C  0.27596215  0.25628454  0.05597561     0.01300
C1786       C  0.28469847  0.26835453  0.04254619     0.04200
C1787       C  0.27758724  0.26941042  0.02406250    -0.11900
C1788       C  0.26146822  0.25894752  0.01909828     0.23500
C1789       C  0.25238078  0.24732066  0.03247257    -0.12500
C1790       C  0.25965054  0.24583991  0.05087188     0.04900
C1791       C  0.25487081  0.25893909  0.99937569     0.27300
C1792       C  0.24238387  0.27303159  0.99297471    -0.13200
C1793       C  0.23504348  0.27203790  0.97456179     0.05400
C1794       C  0.23969497  0.25654191  0.96285385    -0.09100
C1795       C  0.25276876  0.24276854  0.96916904     0.06200
C1796       C  0.26063781  0.24426274  0.98727778    -0.13500
Br1797     Br  0.23058938  0.23252743  0.02508360    -0.05600
Br1798     Br  0.30626743  0.28379764  0.04917936     0.00100
Br1799     Br  0.21900692  0.29213469  0.96533252     0.00500
Br1800     Br  0.27895066  0.22588273  0.99591785    -0.03900
Br1801     Br  0.24797540  0.22811814  0.06820123     0.00600
Br1802     Br  0.29044124  0.28433954  0.00508025    -0.03200
Br1803     Br  0.23503884  0.29334289  0.00967336    -0.04100
Br1804     Br  0.25879860  0.22076863  0.95406299    -0.00100
C1805       C  0.22615726  0.38118639  0.83943331     0.01300
C1806       C  0.23473665  0.36369832  0.83485597     0.04200
C1807       C  0.23196001  0.34782622  0.84658827    -0.11900
C1808       C  0.22085221  0.34929273  0.86309942     0.23500
C1809       C  0.21263766  0.36676600  0.86797917    -0.12500
C1810       C  0.21517296  0.38265642  0.85616901     0.04900
C1811       C  0.21767851  0.33221927  0.87501507     0.27300
C1812       C  0.20191338  0.32050185  0.87160062    -0.13200
C1813       C  0.20016081  0.30304778  0.88107552     0.05400
C1814       C  0.21432353  0.29714989  0.89385961    -0.09100
C1815       C  0.22964865  0.30926440  0.89788180     0.06200
C1816       C  0.23119625  0.32686110  0.88864286    -0.13500
Br1817     Br  0.19799874  0.36882777  0.89096801    -0.05600
Br1818     Br  0.25140267  0.36153491  0.81325306     0.00100
Br1819     Br  0.17893786  0.28676156  0.87556597     0.00500
Br1820     Br  0.25193243  0.34361450  0.89440008    -0.03900
Br1821     Br  0.20291655  0.40618582  0.86278843     0.00600
Br1822     Br  0.24353791  0.32391493  0.84021457    -0.03200
Br1823     Br  0.18307438  0.32819618  0.85341784    -0.04100
Br1824     Br  0.24844306  0.30176971  0.91618261    -0.00100
C1825       C  0.36969252  0.35056818  0.79605424     0.01300
C1826       C  0.35155611  0.34563515  0.78918065     0.04200
C1827       C  0.33624465  0.35801184  0.79189005    -0.11900
C1828       C  0.33895927  0.37528401  0.80139058     0.23500
C1829       C  0.35681793  0.38009213  0.80860079    -0.12500
C1830       C  0.37219941  0.36779961  0.80597664     0.04900
C1831       C  0.32289610  0.38839788  0.80365942     0.27300
C1832       C  0.31801207  0.40065463  0.78874307    -0.13200
C1833       C  0.30121826  0.41121311  0.78978431     0.05400
C1834       C  0.28954503  0.40972172  0.80589962    -0.09100
C1835       C  0.29516667  0.39845980  0.82138659     0.06200
C1836       C  0.31182473  0.38773163  0.82021083    -0.13500
Br1837     Br  0.36001682  0.40357632  0.82216685    -0.05600
Br1838     Br  0.34751109  0.32250819  0.77515623     0.00100
Br1839     Br  0.29403828  0.42750319  0.76907816     0.00500
Br1840     Br  0.31904795  0.37136363  0.84084091    -0.03900
Br1841     Br  0.39638135  0.37454940  0.81683017     0.00600
Br1842     Br  0.31142224  0.35147283  0.78248294    -0.03200
Br1843     Br  0.33407291  0.40237156  0.76668478    -0.04100
Br1844     Br  0.27929946  0.39627781  0.84357222    -0.00100
C1845       C  0.28402082  0.28322811  0.55688540     0.01300
C1846       C  0.29109737  0.28413070  0.53801261     0.04200
C1847       C  0.27877135  0.28164913  0.52263271    -0.11900
C1848       C  0.25955343  0.27772494  0.52576293     0.23500
C1849       C  0.25262777  0.27541471  0.54421064    -0.12500
C1850       C  0.26456012  0.27860017  0.55978707     0.04900
C1851       C  0.24630427  0.27856883  0.50966752     0.27300
C1852       C  0.23726928  0.29583273  0.50554994    -0.13200
C1853       C  0.22638625  0.29758140  0.48908754     0.05400
C1854       C  0.22555768  0.28252197  0.47612628    -0.09100
C1855       C  0.23409426  0.26505654  0.48049594     0.06200
C1856       C  0.24404243  0.26291854  0.49757909    -0.13500
Br1857     Br  0.22647147  0.26822561  0.54787282    -0.05600
Br1858     Br  0.31724586  0.28988397  0.53220728     0.00100
Br1859     Br  0.21268390  0.32062477  0.48427760     0.00500
Br1860     Br  0.25497943  0.23886112  0.50433346    -0.03900
Br1861     Br  0.25322423  0.27679196  0.58471067     0.00600
Br1862     Br  0.28789019  0.28451687  0.49694205    -0.03200
Br1863     Br  0.24074495  0.31740771  0.52194337    -0.04100
Br1864     Br  0.23264720  0.24434865  0.46286050    -0.00100
C1865       C  0.35035647  0.30357435  0.64702998     0.01300
C1866       C  0.34567489  0.29389700  0.66391514     0.04200
C1867       C  0.35720576  0.29583850  0.67991765    -0.11900
C1868       C  0.37347122  0.30730897  0.67911877     0.23500
C1869       C  0.37825924  0.31687772  0.66231739    -0.12500
C1870       C  0.36653222  0.31528883  0.64635560     0.04900
C1871       C  0.38441154  0.31050090  0.69658714     0.27300
C1872       C  0.38030815  0.32643319  0.70780405    -0.13200
C1873       C  0.38840684  0.32817333  0.72581370     0.05400
C1874       C  0.40018490  0.31370553  0.73282160    -0.09100
C1875       C  0.40479415  0.29805897  0.72136106     0.06200
C1876       C  0.39719564  0.29666233  0.70305276    -0.13500
Br1877     Br  0.40071616  0.33238911  0.66143141    -0.05600
Br1878     Br  0.32364993  0.27768280  0.66539591     0.00100
Br1879     Br  0.38209606  0.34968682  0.74141440     0.00500
Br1880     Br  0.40363089  0.27553263  0.68701111    -0.03900
Br1881     Br  0.37174520  0.33051601  0.62425800     0.00600
Br1882     Br  0.35053006  0.28306795  0.70319349    -0.03200
Br1883     Br  0.36259263  0.34524651  0.69893353    -0.04100
Br1884     Br  0.42111305  0.27837654  0.73087890    -0.00100
C1885       C  0.18338586  0.22869044  0.86922497     0.01300
C1886       C  0.18846360  0.23609282  0.85137204     0.04200
C1887       C  0.17659122  0.23301919  0.83581779    -0.11900
C1888       C  0.15945629  0.22317382  0.83830275     0.23500
C1889       C  0.15491276  0.21488894  0.85578722    -0.12500
C1890       C  0.16717213  0.21718885  0.87115366     0.04900
C1891       C  0.14577855  0.22249141  0.82273460     0.27300
C1892       C  0.13221167  0.23696355  0.82103569    -0.13200
C1893       C  0.12028957  0.23740244  0.80523389     0.05400
C1894       C  0.12239495  0.22371281  0.79093451    -0.09100
C1895       C  0.13544827  0.20875560  0.79307288     0.06200
C1896       C  0.14701525  0.20806150  0.80913891    -0.13500
Br1897     Br  0.13149984  0.20113260  0.85875282    -0.05600
Br1898     Br  0.21077279  0.25163785  0.84827434     0.00100
Br1899     Br  0.10118823  0.25680734  0.80302933     0.00500
Br1900     Br  0.16538987  0.18807410  0.81210458    -0.03900
Br1901     Br  0.16204219  0.20403193  0.89457311     0.00600
Br1902     Br  0.18333079  0.24288575  0.81121472    -0.03200
Br1903     Br  0.13079297  0.25674298  0.83982422    -0.04100
Br1904     Br  0.13896356  0.19025118  0.77329371    -0.00100
C1905       C  0.14986019  0.20603630  0.72213732     0.01300
C1906       C  0.16719673  0.21045118  0.73112202     0.04200
C1907       C  0.18305050  0.19862824  0.72851040    -0.11900
C1908       C  0.18152397  0.18214016  0.71741987     0.23500
C1909       C  0.16463649  0.17835000  0.70760858    -0.12500
C1910       C  0.14901596  0.19050189  0.70958294     0.04900
C1911       C  0.19762764  0.16870192  0.71613458     0.27300
C1912       C  0.20967049  0.16905003  0.70024344    -0.13200
C1913       C  0.22483923  0.15623014  0.69893173     0.05400
C1914       C  0.22864334  0.14368069  0.71400909    -0.09100
C1915       C  0.21652590  0.14326099  0.72986313     0.06200
C1916       C  0.20081622  0.15548655  0.73075177    -0.13500
Br1917     Br  0.16276366  0.15611629  0.69188852    -0.05600
Br1918     Br  0.16921461  0.23180458  0.74804752     0.00100
Br1919     Br  0.24086375  0.15662455  0.67678911     0.00500
Br1920     Br  0.18375773  0.15434112  0.75207829    -0.03900
Br1921     Br  0.12664777  0.18612075  0.69450995     0.00600
Br1922     Br  0.20688128  0.20472334  0.74036102    -0.03200
Br1923     Br  0.20583205  0.18776320  0.68071993    -0.04100
Br1924     Br  0.22146783  0.12581134  0.75027713    -0.00100
C1925       C  0.29521038  0.16272890  0.67890103     0.01300
C1926       C  0.28950670  0.18147979  0.68289084     0.04200
C1927       C  0.29444610  0.19620994  0.67045694    -0.11900
C1928       C  0.30504376  0.19233112  0.65402433     0.23500
C1929       C  0.31094966  0.17377621  0.65006927    -0.12500
C1930       C  0.30614187  0.15897765  0.66248782     0.04900
C1931       C  0.30963278  0.20788801  0.64080281     0.27300
C1932       C  0.29663871  0.21288877  0.62658225    -0.13200
C1933       C  0.29951231  0.22943640  0.61597499     0.05400
C1934       C  0.31543375  0.24085421  0.61945833    -0.09100
C1935       C  0.32952071  0.23467459  0.63214890     0.06200
C1936       C  0.32640009  0.21839355  0.64315109    -0.13500
Br1937     Br  0.32552095  0.16879570  0.62746661    -0.05600
Br1938     Br  0.27401231  0.18713638  0.70473411     0.00100
Br1939     Br  0.28193561  0.23632645  0.59636669     0.00500
Br1940     Br  0.34446586  0.21103769  0.66221618    -0.03900
Br1941     Br  0.31539271  0.13380623  0.65716439     0.00600
Br1942     Br  0.28644508  0.22181818  0.67565704    -0.03200
Br1943     Br  0.27455989  0.19745091  0.62224084    -0.04100
Br1944     Br  0.35273156  0.24878274  0.63502519    -0.00100
C1945       C  0.77403894  0.28326918  0.97170141     0.01300
C1946       C  0.76010816  0.29678361  0.97657550     0.04200
C1947       C  0.75195169  0.29655886  0.99472725    -0.11900
C1948       C  0.75684647  0.28228122  0.00771978     0.23500
C1949       C  0.76991367  0.26816917  0.00257666    -0.12500
C1950       C  0.77868131  0.26875885  0.98468779     0.04900
C1951       C  0.74810107  0.28227393  0.02678531     0.27300
C1952       C  0.75550787  0.29393633  0.04106742    -0.13200
C1953       C  0.74570819  0.29612859  0.05830426     0.05400
C1954       C  0.72848027  0.28621195  0.06146447    -0.09100
C1955       C  0.72214544  0.27313976  0.04758145     0.06200
C1956       C  0.73172236  0.27154504  0.03019790    -0.13500
Br1957     Br  0.77591856  0.24824092  0.02025592    -0.05600
Br1958     Br  0.75244551  0.31615365  0.95887464     0.00100
Br1959     Br  0.75585325  0.31369334  0.07662530     0.00500
Br1960     Br  0.72213867  0.25505932  0.01063423    -0.03900
Br1961     Br  0.79654119  0.24921103  0.97787088     0.00600
Br1962     Br  0.73456573  0.31629935  0.00219692    -0.03200
Br1963     Br  0.77886780  0.30743747  0.03647911    -0.04100
Br1964     Br  0.70075025  0.25664991  0.05214605    -0.00100
C1965       C  0.95753484  0.28561506  0.75270843     0.01300
C1966       C  0.96746498  0.28956066  0.76958956     0.04200
C1967       C  0.98600209  0.28283042  0.77200164    -0.11900
C1968       C  0.99429571  0.27144650  0.75795708     0.23500
C1969       C  0.98364462  0.26572451  0.74213538    -0.12500
C1970       C  0.96538298  0.27305341  0.73928813     0.04900
C1971       C  0.01466530  0.26678256  0.75878893     0.27300
C1972       C  0.02758033  0.27768788  0.74823241    -0.13200
C1973       C  0.04635395  0.27152009  0.74599764     0.05400
C1974       C  0.05260628  0.25503369  0.75550269    -0.09100
C1975       C  0.04004309  0.24541580  0.76783964     0.06200
C1976       C  0.02094133  0.25087761  0.76889788    -0.13500
Br1977     Br  0.99454531  0.24842990  0.72399358    -0.05600
Br1978     Br  0.95561586  0.30396298  0.78959089     0.00100
Br1979     Br  0.06243038  0.28475669  0.72821462     0.00500
Br1980     Br  0.00306529  0.23609698  0.78335932    -0.03900
Br1981     Br  0.95211480  0.26708331  0.71617997     0.00600
Br1982     Br  0.00041297  0.28989388  0.79404799    -0.03200
Br1983     Br  0.01916118  0.30075259  0.73621131    -0.04100
Br1984     Br  0.04887331  0.22494218  0.78363267    -0.00100
C1985       C  0.88913440  0.30864261  0.79239092     0.01300
C1986       C  0.87746294  0.32330585  0.79929931     0.04200
C1987       C  0.86701191  0.32066102  0.81600815    -0.11900
C1988       C  0.86860289  0.30360719  0.82615571     0.23500
C1989       C  0.88097930  0.28932389  0.81983840    -0.12500
C1990       C  0.89106544  0.29172291  0.80281199     0.04900
C1991       C  0.85734102  0.30092911  0.84361355     0.27300
C1992       C  0.86396616  0.30834660  0.86080520    -0.13200
C1993       C  0.85260596  0.30739374  0.87711110     0.05400
C1994       C  0.83492415  0.29794876  0.87652930    -0.09100
C1995       C  0.82867234  0.28983754  0.85931690     0.06200
C1996       C  0.83967356  0.29178147  0.84282335    -0.13500
Br1997     Br  0.88416748  0.26665921  0.83472635    -0.05600
Br1998     Br  0.87506256  0.34680958  0.78556877     0.00100
Br1999     Br  0.86113264  0.32016231  0.89973182     0.00500
Br2000     Br  0.83058679  0.28199319  0.81900962    -0.03900
Br2001     Br  0.90798923  0.27212813  0.79413264     0.00600
Br2002     Br  0.85018259  0.34026014  0.82493325    -0.03200
Br2003     Br  0.88877561  0.31976191  0.86185446    -0.04100
Br2004     Br  0.80571498  0.27496702  0.85821292    -0.00100
C2005       C  0.79239626  0.15544833  0.84940781     0.01300
C2006       C  0.78666867  0.17379493  0.84373958     0.04200
C2007       C  0.79030378  0.18943912  0.85549647    -0.11900
C2008       C  0.79903498  0.18683740  0.87318999     0.23500
C2009       C  0.80512189  0.16875036  0.87873236    -0.12500
C2010       C  0.80210855  0.15312693  0.86679770     0.04900
C2011       C  0.80130766  0.20314408  0.88615623     0.27300
C2012       C  0.81799449  0.21401376  0.88568635    -0.13200
C2013       C  0.81946599  0.23041729  0.89685341     0.05400
C2014       C  0.80396972  0.23626807  0.90809728    -0.09100
C2015       C  0.78764905  0.22484750  0.90922847     0.06200
C2016       C  0.78635888  0.20826284  0.89834025    -0.13500
Br2017     Br  0.81744108  0.16549424  0.90287572    -0.05600
Br2018     Br  0.77258180  0.17773629  0.82065454     0.00100
Br2019     Br  0.84219074  0.24553345  0.89542103     0.00500
Br2020     Br  0.76373939  0.19299304  0.89931888    -0.03900
Br2021     Br  0.81209574  0.12878085  0.87427228     0.00600
Br2022     Br  0.78317966  0.21460059  0.84757043    -0.03200
Br2023     Br  0.83823981  0.20706952  0.86867337    -0.04100
Br2024     Br  0.76696842  0.23209932  0.92558339    -0.00100
C2025       C  0.73144166  0.26664139  0.55116131     0.01300
C2026       C  0.72588915  0.28074556  0.53811695     0.04200
C2027       C  0.73394591  0.28121682  0.51993023    -0.11900
C2028       C  0.74844364  0.26845835  0.51516451     0.23500
C2029       C  0.75514294  0.25543245  0.52864109    -0.12500
C2030       C  0.74642940  0.25420340  0.54648575     0.04900
C2031       C  0.75670604  0.26852010  0.49593962     0.27300
C2032       C  0.74984080  0.25588073  0.48220813    -0.13200
C2033       C  0.75933998  0.25394389  0.46480781     0.05400
C2034       C  0.77555387  0.26509917  0.46094487    -0.09100
C2035       C  0.78132904  0.27895225  0.47422546     0.06200
C2036       C  0.77215667  0.28033081  0.49182341    -0.13500
Br2037     Br  0.77610586  0.23902386  0.52236757    -0.05600
Br2038     Br  0.70807562  0.30015984  0.54539027     0.00100
Br2039     Br  0.75070000  0.23485721  0.44726658     0.00500
Br2040     Br  0.78118229  0.29779685  0.51077627    -0.03900
Br2041     Br  0.75448267  0.23457879  0.56374402     0.00600
Br2042     Br  0.72483714  0.29893271  0.50128093    -0.03200
Br2043     Br  0.72779317  0.24067598  0.48773448    -0.04100
Br2044     Br  0.80150564  0.29651194  0.46842556    -0.00100
C2045       C  0.79082996  0.41069518  0.70829588     0.01300
C2046       C  0.80185615  0.41155117  0.72485805     0.04200
C2047       C  0.81720478  0.39916838  0.72718435    -0.11900
C2048       C  0.82143859  0.38582169  0.71301034     0.23500
C2049       C  0.81100524  0.38552456  0.69607666    -0.12500
C2050       C  0.79579946  0.39810311  0.69362056     0.04900
C2051       C  0.83659752  0.37183060  0.71628516     0.27300
C2052       C  0.85505950  0.37558409  0.70987776    -0.13200
C2053       C  0.86984588  0.36322096  0.71458260     0.05400
C2054       C  0.86624572  0.34728927  0.72613447    -0.09100
C2055       C  0.84761718  0.34324990  0.73209706     0.06200
C2056       C  0.83274209  0.35534112  0.72681564    -0.13500
Br2057     Br  0.81689135  0.36705906  0.67684633    -0.05600
Br2058     Br  0.79563809  0.42948187  0.74450360     0.00100
Br2059     Br  0.89492971  0.36803620  0.70471448     0.00500
Br2060     Br  0.80703847  0.34952284  0.73405959    -0.03900
Br2061     Br  0.78092274  0.39695609  0.67078317     0.00600
Br2062     Br  0.83195588  0.39981048  0.75014787    -0.03200
Br2063     Br  0.86004281  0.39785162  0.69485602    -0.04100
Br2064     Br  0.84258656  0.32212182  0.74868834    -0.00100
C2065       C  0.72398368  0.38968091  0.67204772     0.01300
C2066       C  0.73018950  0.37092123  0.67499881     0.04200
C2067       C  0.72534472  0.35672701  0.66196299    -0.11900
C2068       C  0.71405372  0.36110631  0.64615087     0.23500
C2069       C  0.70769341  0.37968663  0.64320799    -0.12500
C2070       C  0.71277178  0.39402159  0.65599752     0.04900
C2071       C  0.70879297  0.34584600  0.63290172     0.27300
C2072       C  0.72179330  0.33997037  0.61896720    -0.13200
C2073       C  0.71890788  0.32279934  0.60944608     0.05400
C2074       C  0.70291943  0.31168424  0.61372732    -0.09100
C2075       C  0.68904475  0.31842226  0.62638381     0.06200
C2076       C  0.69199129  0.33556353  0.63596833    -0.13500
Br2077     Br  0.69193587  0.38533936  0.62164301    -0.05600
Br2078     Br  0.74617712  0.36459238  0.69620933     0.00100
Br2079     Br  0.73727507  0.31398291  0.59120078     0.00500
Br2080     Br  0.67379462  0.34428814  0.65439488    -0.03900
Br2081     Br  0.70372281  0.41944927  0.65151348     0.00600
Br2082     Br  0.73434185  0.33114650  0.66551492    -0.03200
Br2083     Br  0.74417492  0.35480569  0.61398826    -0.04100
Br2084     Br  0.66709772  0.30321488  0.63223560    -0.00100
C2085       C  0.46015091  0.28409746  0.77923137     0.01300
C2086       C  0.46515604  0.27011874  0.79261620     0.04200
C2087       C  0.48258173  0.26069570  0.79094950    -0.11900
C2088       C  0.49506636  0.26541042  0.77614436     0.23500
C2089       C  0.48983883  0.27878435  0.76241287    -0.12500
C2090       C  0.47225511  0.28788151  0.76372992     0.04900
C2091       C  0.51423603  0.25721792  0.77568319     0.27300
C2092       C  0.52882485  0.26608574  0.78578272    -0.13200
C2093       C  0.54701357  0.25811529  0.78605238     0.05400
C2094       C  0.55098311  0.24164730  0.77517117    -0.09100
C2095       C  0.53618392  0.23316853  0.76452467     0.06200
C2096       C  0.51781331  0.24076736  0.76518707    -0.13500
Br2097     Br  0.50729248  0.28524858  0.74235428    -0.05600
Br2098     Br  0.44905071  0.26473365  0.81407947     0.00100
Br2099     Br  0.56544603  0.26937463  0.80289475     0.00500
Br2100     Br  0.49723838  0.22861615  0.75194230    -0.03900
Br2101     Br  0.46476223  0.30519030  0.74394721     0.00600
Br2102     Br  0.48989929  0.24193466  0.80940288    -0.03200
Br2103     Br  0.52358245  0.28919052  0.79949663    -0.04100
Br2104     Br  0.54049268  0.21139638  0.74850868    -0.00100
C2105       C  0.61948363  0.22333197  0.72899149     0.01300
C2106       C  0.61567145  0.24020478  0.71907278     0.04200
C2107       C  0.62539777  0.24422265  0.70218558    -0.11900
C2108       C  0.63886073  0.23132388  0.69514693     0.23500
C2109       C  0.64198299  0.21402490  0.70453051    -0.12500
C2110       C  0.63220955  0.20995509  0.72139816     0.04900
C2111       C  0.64994358  0.23609327  0.67800828     0.27300
C2112       C  0.64370970  0.22998766  0.66016206    -0.13200
C2113       C  0.65424500  0.23443235  0.64384695     0.05400
C2114       C  0.67100583  0.24536130  0.64532952    -0.09100
C2115       C  0.67711239  0.25156477  0.66335970     0.06200
C2116       C  0.66667598  0.24675694  0.67963192    -0.13500
Br2117     Br  0.66025803  0.19631648  0.69460474    -0.05600
Br2118     Br  0.59682622  0.25762378  0.72848419     0.00100
Br2119     Br  0.64594082  0.22445852  0.61979566     0.00500
Br2120     Br  0.67524906  0.25471106  0.70430997    -0.03900
Br2121     Br  0.63716587  0.18656260  0.73460118     0.00600
Br2122     Br  0.62073393  0.26760812  0.68890224    -0.03200
Br2123     Br  0.62070503  0.21534086  0.65829183    -0.04100
Br2124     Br  0.69921814  0.26746338  0.66604145    -0.00100
C2125       C  0.64896933  0.18990819  0.79721393     0.01300
C2126       C  0.64658643  0.17493771  0.81025099     0.04200
C2127       C  0.66215941  0.16393347  0.81558600    -0.11900
C2128       C  0.68010200  0.16791382  0.80800258     0.23500
C2129       C  0.68276527  0.18352139  0.79588447    -0.12500
C2130       C  0.66715365  0.19454961  0.79042916     0.04900
C2131       C  0.69581121  0.15475056  0.81162589     0.27300
C2132       C  0.70742593  0.15717746  0.82757291    -0.13200
C2133       C  0.72269676  0.14484678  0.83055765     0.05400
C2134       C  0.72646411  0.13035198  0.81737787    -0.09100
C2135       C  0.71416983  0.12729078  0.80206055     0.06200
C2136       C  0.69885769  0.13954647  0.79912812    -0.13500
Br2137     Br  0.70773570  0.18932575  0.78641942    -0.05600
Br2138     Br  0.62209292  0.16956749  0.82122003     0.00100
Br2139     Br  0.73902392  0.14855493  0.85208646     0.00500
Br2140     Br  0.68246221  0.13607082  0.77758547    -0.03900
Br2141     Br  0.67054456  0.21513419  0.77278953     0.00600
Br2142     Br  0.65895953  0.14305060  0.83293472    -0.03200
Br2143     Br  0.70288435  0.17794236  0.84470380    -0.04100
Br2144     Br  0.71840789  0.10628736  0.78516986    -0.00100
C2145       C  0.24273574  0.97700151  0.24125334     0.01300
C2146       C  0.25604281  0.97753806  0.25606678     0.04200
C2147       C  0.25744243  0.99373160  0.26748016    -0.11900
C2148       C  0.24537978  0.00921967  0.26417602     0.23500
C2149       C  0.23189784  0.00856559  0.24955377    -0.12500
C2150       C  0.23064420  0.99249546  0.23800399     0.04900
C2151       C  0.24645520  0.02617907  0.27623356     0.27300
C2152       C  0.23454103  0.02768857  0.29212508    -0.13200
C2153       C  0.23400658  0.04459719  0.30246658     0.05400
C2154       C  0.24542373  0.06001627  0.29689300    -0.09100
C2155       C  0.25766737  0.05834193  0.28122172     0.06200
C2156       C  0.25822082  0.04135872  0.27092364    -0.13500
Br2157     Br  0.21478380  0.02953612  0.24582360    -0.05600
Br2158     Br  0.27243908  0.95616823  0.26057267     0.00100
Br2159     Br  0.21653656  0.04696628  0.32340583     0.00500
Br2160     Br  0.27464733  0.03890211  0.24921839    -0.03900
Br2161     Br  0.21164966  0.99132724  0.21844343     0.00600
Br2162     Br  0.27559601  0.99469293  0.28780465    -0.03200
Br2163     Br  0.21835482  0.00680917  0.29914939    -0.04100
Br2164     Br  0.27377279  0.07918015  0.27398508    -0.00100
C2165       C  0.47041592  0.80897385  0.25839280     0.01300
C2166       C  0.48598834  0.81428268  0.24699753     0.04200
C2167       C  0.50205553  0.80266598  0.24608793    -0.11900
C2168       C  0.50362531  0.78685738  0.25815342     0.23500
C2169       C  0.48856719  0.78223062  0.27048271    -0.12500
C2170       C  0.47162670  0.79271646  0.26989677     0.04900
C2171       C  0.52112400  0.77521733  0.25755715     0.27300
C2172       C  0.52075192  0.75687373  0.24985797    -0.13200
C2173       C  0.53758244  0.74632655  0.24840639     0.05400
C2174       C  0.55536046  0.75519500  0.25144332    -0.09100
C2175       C  0.55554775  0.77369092  0.25929952     0.06200
C2176       C  0.53844522  0.78303866  0.26342925    -0.13500
Br2177     Br  0.49124625  0.76175059  0.28835694    -0.05600
Br2178     Br  0.48543323  0.83723695  0.23211410     0.00100
Br2179     Br  0.53532422  0.71970561  0.24280280     0.00500
Br2180     Br  0.53863873  0.80696023  0.27672089    -0.03900
Br2181     Br  0.45027966  0.78492341  0.28505703     0.00600
Br2182     Br  0.52159715  0.80801062  0.22763224    -0.03200
Br2183     Br  0.49738892  0.74672084  0.23989481    -0.04100
Br2184     Br  0.57884293  0.78663767  0.26481978    -0.00100
C2185       C  0.37936702  0.87342328  0.23827568     0.01300
C2186       C  0.37031635  0.87073608  0.22066495     0.04200
C2187       C  0.35418754  0.88138575  0.21608375    -0.11900
C2188       C  0.34650590  0.89406566  0.22938002     0.23500
C2189       C  0.35603501  0.89755983  0.24649003    -0.12500
C2190       C  0.37275129  0.88763633  0.25074504     0.04900
C2191       C  0.32708262  0.90135275  0.22656813     0.27300
C2192       C  0.32383686  0.91994919  0.22025927    -0.13200
C2193       C  0.30515689  0.92644181  0.21763351     0.05400
C2194       C  0.28967759  0.91400518  0.22053007    -0.09100
C2195       C  0.29318594  0.89532284  0.22679801     0.06200
C2196       C  0.31174553  0.88920419  0.23016552    -0.13500
Br2197     Br  0.34546650  0.91513996  0.26454996    -0.05600
Br2198     Br  0.37995309  0.85265026  0.20254774     0.00100
Br2199     Br  0.30105118  0.95267171  0.21117476     0.00500
Br2200     Br  0.31629425  0.86392407  0.23967143    -0.03900
Br2201     Br  0.38572129  0.89302410  0.27418012     0.00600
Br2202     Br  0.34199836  0.87814611  0.19187077    -0.03200
Br2203     Br  0.34507501  0.93634170  0.21510262    -0.04100
Br2204     Br  0.27299115  0.87729655  0.22981677    -0.00100
C2205       C  0.40343558  0.83501960  0.30380706     0.01300
C2206       C  0.38390797  0.83853667  0.30596785     0.04200
C2207       C  0.37497136  0.83481893  0.32328679    -0.11900
C2208       C  0.38485001  0.82519740  0.33762293     0.23500
C2209       C  0.40437962  0.82162946  0.33556910    -0.12500
C2210       C  0.41386645  0.82746670  0.31900618     0.04900
C2211       C  0.37401435  0.81728715  0.35373738     0.27300
C2212       C  0.37380678  0.82658957  0.37134234    -0.13200
C2213       C  0.36143717  0.82040734  0.38570500     0.05400
C2214       C  0.34914523  0.80500496  0.38235043    -0.09100
C2215       C  0.35000735  0.79520203  0.36503003     0.06200
C2216       C  0.36242342  0.80132159  0.35075618    -0.13500
Br2217     Br  0.41769713  0.80754753  0.35474765    -0.05600
Br2218     Br  0.36885646  0.84684032  0.28481647     0.00100
Br2219     Br  0.36050588  0.83394310  0.40941474     0.00500
Br2220     Br  0.36299119  0.78831631  0.32672745    -0.03900
Br2221     Br  0.44083385  0.82419918  0.31673121     0.00600
Br2222     Br  0.34891330  0.84216308  0.32717565    -0.03200
Br2223     Br  0.38971314  0.84842034  0.37531391    -0.04100
Br2224     Br  0.33428775  0.77324027  0.36089101    -0.00100
C2225       C  0.22812303  0.88265891  0.17932779     0.01300
C2226       C  0.22502341  0.88378807  0.15949135     0.04200
C2227       C  0.22455297  0.86725208  0.14842313    -0.11900
C2228       C  0.22631261  0.84943304  0.15701135     0.23500
C2229       C  0.22867060  0.84802997  0.17666893    -0.12500
C2230       C  0.22903470  0.86443051  0.18791975     0.04900
C2231       C  0.22323613  0.83202178  0.14580041     0.27300
C2232       C  0.20485796  0.82448686  0.14452355    -0.13200
C2233       C  0.20176769  0.80733692  0.13499778     0.05400
C2234       C  0.21704910  0.79785013  0.12616489    -0.09100
C2235       C  0.23552025  0.80553599  0.12743939     0.06200
C2236       C  0.23857831  0.82252529  0.13737675    -0.13500
Br2237     Br  0.23120470  0.82327402  0.18809287    -0.05600
Br2238     Br  0.21880937  0.90746936  0.14731358     0.00100
Br2239     Br  0.17676883  0.79624405  0.13574761     0.00500
Br2240     Br  0.26379518  0.83270887  0.13993695    -0.03900
Br2241     Br  0.22935747  0.86081970  0.21502752     0.00600
Br2242     Br  0.22119881  0.86880766  0.12135427    -0.03200
Br2243     Br  0.18398626  0.83753693  0.15649090    -0.04100
Br2244     Br  0.25674097  0.79319555  0.11538488    -0.00100
C2245       C  0.26985932  0.56393238  0.28744856     0.01300
C2246       C  0.26391363  0.56537956  0.26829317     0.04200
C2247       C  0.26166541  0.54899275  0.25717554    -0.11900
C2248       C  0.26623003  0.53112330  0.26461954     0.23500
C2249       C  0.27161878  0.52943166  0.28368340    -0.12500
C2250       C  0.27281596  0.54558647  0.29526883     0.04900
C2251       C  0.26683038  0.51422818  0.25213183     0.27300
C2252       C  0.25297314  0.49992519  0.25368965    -0.13200
C2253       C  0.25543630  0.48263157  0.24407991     0.05400
C2254       C  0.27083440  0.48032419  0.23162294    -0.09100
C2255       C  0.28316902  0.49563303  0.22815188     0.06200
C2256       C  0.28192239  0.51204388  0.23924566    -0.13500
Br2257     Br  0.27845067  0.50484516  0.29362096    -0.05600
Br2258     Br  0.25847986  0.58952604  0.25672105     0.00100
Br2259     Br  0.23737647  0.46242984  0.24723923     0.00500
Br2260     Br  0.30141939  0.53112405  0.23734815    -0.03900
Br2261     Br  0.27920288  0.54170361  0.32161423     0.00600
Br2262     Br  0.25264568  0.55088012  0.23144096    -0.03200
Br2263     Br  0.23060662  0.50425462  0.26873682    -0.04100
Br2264     Br  0.30136411  0.49457832  0.20777317    -0.00100
C2265       C  0.31011125  0.73747558  0.40658378     0.01300
C2266       C  0.32667637  0.72892627  0.39939253     0.04200
C2267       C  0.32546006  0.71148780  0.38979085    -0.11900
C2268       C  0.30789559  0.70206940  0.38843541     0.23500
C2269       C  0.29198897  0.70940286  0.39799699    -0.12500
C2270       C  0.29292069  0.72732916  0.40652169     0.04900
C2271       C  0.30539179  0.68578707  0.37533767     0.27300
C2272       C  0.29599488  0.68864185  0.35797570    -0.13200
C2273       C  0.29204613  0.67324461  0.34600856     0.05400
C2274       C  0.29788237  0.65479237  0.35110618    -0.09100
C2275       C  0.30794706  0.65208856  0.36825644     0.06200
C2276       C  0.31138912  0.66749866  0.38043332    -0.13500
Br2277     Br  0.26869242  0.69513972  0.39861275    -0.05600
Br2278     Br  0.35079711  0.74152279  0.40166883     0.00100
Br2279     Br  0.27733619  0.67764375  0.32337891     0.00500
Br2280     Br  0.32375694  0.66351747  0.40445190    -0.03900
Br2281     Br  0.27049023  0.73814874  0.41782006     0.00600
Br2282     Br  0.34755401  0.70113292  0.37750676    -0.03200
Br2283     Br  0.28795612  0.71379207  0.35084377    -0.04100
Br2284     Br  0.31776721  0.62748452  0.37507039    -0.00100
C2285       C  0.96572193  0.79416883  0.27879988     0.01300
C2286       C  0.97853324  0.79934360  0.26419641     0.04200
C2287       C  0.99672094  0.79121541  0.26335092    -0.11900
C2288       C  0.00212297  0.77743352  0.27665218     0.23500
C2289       C  0.98907814  0.77133958  0.29045693    -0.12500
C2290       C  0.97103339  0.77975916  0.29169386     0.04900
C2291       C  0.02168788  0.76964950  0.27651584     0.27300
C2292       C  0.02681231  0.75549390  0.26346983    -0.13200
C2293       C  0.04518157  0.74779272  0.26374847     0.05400
C2294       C  0.05813735  0.75319085  0.27798442    -0.09100
C2295       C  0.05301092  0.76756808  0.29095419     0.06200
C2296       C  0.03503093  0.77609961  0.28983751    -0.13500
Br2297     Br  0.99630149  0.75166266  0.30802227    -0.05600
Br2298     Br  0.97125525  0.81717965  0.24477776     0.00100
Br2299     Br  0.05274781  0.73047366  0.24400478     0.00500
Br2300     Br  0.02838458  0.79639184  0.30689377    -0.03900
Br2301     Br  0.95448547  0.77213240  0.31202422     0.00600
Br2302     Br  0.01456344  0.79930432  0.24424641    -0.03200
Br2303     Br  0.00834829  0.74612046  0.24570888    -0.04100
Br2304     Br  0.06976414  0.77474943  0.31130842    -0.00100
C2305       C  0.12314572  0.72446651  0.23240437     0.01300
C2306       C  0.11903759  0.73924570  0.21968045     0.04200
C2307       C  0.12818639  0.73994780  0.20199767    -0.11900
C2308       C  0.14137097  0.72584308  0.19703846     0.23500
C2309       C  0.14467695  0.71051026  0.20928453    -0.12500
C2310       C  0.13567857  0.70987079  0.22701579     0.04900
C2311       C  0.15340077  0.72834833  0.18008321     0.27300
C2312       C  0.14746432  0.72161790  0.16232690    -0.13200
C2313       C  0.15888697  0.72457838  0.14627839     0.05400
C2314       C  0.17610409  0.73459302  0.14796655    -0.09100
C2315       C  0.18207781  0.74117545  0.16581819     0.06200
C2316       C  0.17081527  0.73787114  0.18186445    -0.13500
Br2317     Br  0.16238168  0.69098602  0.20208171    -0.05600
Br2318     Br  0.10099242  0.75853278  0.22653271     0.00100
Br2319     Br  0.15116010  0.71437925  0.12213730     0.00500
Br2320     Br  0.17900164  0.74671735  0.20637131    -0.03900
Br2321     Br  0.14191144  0.68984288  0.24450233     0.00600
Br2322     Br  0.12343045  0.76063215  0.18482589    -0.03200
Br2323     Br  0.12358609  0.70859981  0.16005455    -0.04100
Br2324     Br  0.20498842  0.75589909  0.16825350    -0.00100
C2325       C  0.23134572  0.63314982  0.31729121     0.01300
C2326       C  0.22756625  0.64746709  0.33066931     0.04200
C2327       C  0.21258149  0.66023421  0.32761584    -0.11900
C2328       C  0.20136592  0.65863551  0.31122609     0.23500
C2329       C  0.20479161  0.64394583  0.29821587    -0.12500
C2330       C  0.21938631  0.63092382  0.30156759     0.04900
C2331       C  0.18501481  0.67137850  0.30816685     0.27300
C2332       C  0.16679117  0.66506575  0.31303375    -0.13200
C2333       C  0.15086067  0.67607409  0.30857710     0.05400
C2334       C  0.15304961  0.69352926  0.29887538    -0.09100
C2335       C  0.17152275  0.69994273  0.29426561     0.06200
C2336       C  0.18743226  0.68896132  0.29914467    -0.13500
Br2337     Br  0.18988131  0.64213441  0.27541961    -0.05600
Br2338     Br  0.24314992  0.64989221  0.35292293     0.00100
Br2339     Br  0.12627145  0.66699822  0.31656147     0.00500
Br2340     Br  0.21264401  0.69770991  0.29316849    -0.03900
Br2341     Br  0.22234317  0.60934049  0.28528235     0.00600
Br2342     Br  0.20782409  0.68033952  0.34542719    -0.03200
Br2343     Br  0.16380222  0.64096808  0.32564829    -0.04100
Br2344     Br  0.17540205  0.72298302  0.28003171    -0.00100
C2345       C  0.26550342  0.98549752  0.79434746     0.01300
C2346       C  0.27679029  0.98887451  0.77800446     0.04200
C2347       C  0.27591749  0.00641699  0.76857011    -0.11900
C2348       C  0.26437389  0.02105535  0.77557215     0.23500
C2349       C  0.25301921  0.01783814  0.79164944    -0.12500
C2350       C  0.25330651  0.00008588  0.80083834     0.04900
C2351       C  0.26499513  0.04003733  0.76635692     0.27300
C2352       C  0.28033905  0.05224748  0.76993504    -0.13200
C2353       C  0.28242276  0.06913990  0.75954375     0.05400
C2354       C  0.26868261  0.07438763  0.74594958    -0.09100
C2355       C  0.25290776  0.06242854  0.74292157     0.06200
C2356       C  0.25117908  0.04526900  0.75298673    -0.13500
Br2357     Br  0.23742102  0.03808687  0.80128782    -0.05600
Br2358     Br  0.29484484  0.97039609  0.76890791     0.00100
Br2359     Br  0.30525393  0.08384916  0.76276034     0.00500
Br2360     Br  0.23014701  0.02856913  0.74812013    -0.03900
Br2361     Br  0.23637146  0.99593314  0.82192664     0.00600
Br2362     Br  0.29102862  0.01076352  0.74612801    -0.03200
Br2363     Br  0.29888283  0.04536861  0.78877778    -0.04100
Br2364     Br  0.23346475  0.06945354  0.72507632    -0.00100
C2365       C  0.14689605  0.85349336  0.80546809     0.01300
C2366       C  0.14321840  0.86781655  0.81892925     0.04200
C2367       C  0.15741129  0.88092162  0.82364281    -0.11900
C2368       C  0.17536830  0.87963211  0.81511228     0.23500
C2369       C  0.17934791  0.86483705  0.80234001    -0.12500
C2370       C  0.16515654  0.85175196  0.79752601     0.04900
C2371       C  0.19010771  0.89394386  0.81921577     0.27300
C2372       C  0.19338268  0.90876489  0.80627529    -0.13200
C2373       C  0.20929304  0.92049221  0.80842839     0.05400
C2374       C  0.22166978  0.91769539  0.82375980    -0.09100
C2375       C  0.21733171  0.90407793  0.83772003     0.06200
C2376       C  0.20172312  0.89198537  0.83526937    -0.13500
Br2377     Br  0.20425347  0.86278341  0.79120258    -0.05600
Br2378     Br  0.11899214  0.86908786  0.83160287     0.00100
Br2379     Br  0.21446425  0.94018728  0.79022254     0.00500
Br2380     Br  0.19695828  0.87189909  0.85316525    -0.03900
Br2381     Br  0.17064522  0.83206672  0.77938833     0.00600
Br2382     Br  0.15228239  0.90082128  0.84161201    -0.03200
Br2383     Br  0.17653775  0.91232740  0.78512426    -0.04100
Br2384     Br  0.23351571  0.90092819  0.85946787    -0.00100
C2385       C  0.27402427  0.75781788  0.96171155     0.01300
C2386       C  0.25642859  0.74875190  0.96519029     0.04200
C2387       C  0.24742588  0.75094799  0.98283170    -0.11900
C2388       C  0.25644917  0.76104330  0.99739860     0.23500
C2389       C  0.27341174  0.77075571  0.99379188    -0.12500
C2390       C  0.28171698  0.76990285  0.97577422     0.04900
C2391       C  0.24909093  0.75997376  0.01694978     0.27300
C2392       C  0.23968880  0.77553122  0.02510207    -0.13200
C2393       C  0.23343586  0.77454355  0.04395381     0.05400
C2394       C  0.23553266  0.75759089  0.05427846    -0.09100
C2395       C  0.24497165  0.74200933  0.04606755     0.06200
C2396       C  0.25204387  0.74335814  0.02755507    -0.13500
Br2397     Br  0.28593285  0.78427237  0.01398390    -0.05600
Br2398     Br  0.24496818  0.73199233  0.94689953     0.00100
Br2399     Br  0.22260451  0.79663253  0.05585024     0.00500
Br2400     Br  0.26536436  0.72218988  0.01645112    -0.03900
Br2401     Br  0.30333504  0.78596728  0.97067928     0.00600
Br2402     Br  0.22310889  0.73932458  0.98760841    -0.03200
Br2403     Br  0.23475792  0.79785939  0.01018434    -0.04100
Br2404     Br  0.24704961  0.71820888  0.05938177    -0.00100
C2405       C  0.30268108  0.80097662  0.89896905     0.01300
C2406       C  0.31673112  0.80815474  0.88670581     0.04200
C2407       C  0.31425974  0.82594386  0.87803574    -0.11900
C2408       C  0.29826147  0.83706485  0.88240699     0.23500
C2409       C  0.28494978  0.83044087  0.89574169    -0.12500
C2410       C  0.28681865  0.81219674  0.90352372     0.04900
C2411       C  0.29465526  0.85504425  0.87201511     0.27300
C2412       C  0.30299127  0.87211411  0.87799864    -0.13200
C2413       C  0.29925830  0.88911645  0.86820575     0.05400
C2414       C  0.28719157  0.88911318  0.85222459    -0.09100
C2415       C  0.27884886  0.87189554  0.84630791     0.06200
C2416       C  0.28255167  0.85500103  0.85620187    -0.13500
Br2417     Br  0.26402864  0.84636424  0.90308382    -0.05600
Br2418     Br  0.33883949  0.79316977  0.88093407     0.00100
Br2419     Br  0.31138926  0.91215510  0.87642759     0.00500
Br2420     Br  0.27084105  0.83163355  0.84825763    -0.03900
Br2421     Br  0.26748148  0.80241496  0.92020339     0.00600
Br2422     Br  0.33225737  0.83470295  0.85943914    -0.03200
Br2423     Br  0.31947694  0.87205212  0.89973425    -0.04100
Br2424     Br  0.26144286  0.87130450  0.82524013    -0.00100
C2425       C  0.33792817  0.73743198  0.86971433     0.01300
C2426       C  0.33244220  0.74529105  0.85214366     0.04200
C2427       C  0.34440300  0.74357633  0.83633630    -0.11900
C2428       C  0.36197573  0.73440130  0.83808861     0.23500
C2429       C  0.36769503  0.72692919  0.85558059    -0.12500
C2430       C  0.35560508  0.72813455  0.87132502     0.04900
C2431       C  0.37414521  0.73189930  0.82129609     0.27300
C2432       C  0.37229817  0.71544784  0.81025487    -0.13200
C2433       C  0.38338421  0.71319250  0.79390740     0.05400
C2434       C  0.39585081  0.72773993  0.78827538    -0.09100
C2435       C  0.39797198  0.74402281  0.79958255     0.06200
C2436       C  0.38725752  0.74600609  0.81621464    -0.13500
Br2437     Br  0.39227683  0.71519391  0.85781771    -0.05600
Br2438     Br  0.30917894  0.75948015  0.84966758     0.00100
Br2439     Br  0.38030755  0.69080203  0.77858350     0.00500
Br2440     Br  0.38992022  0.76831823  0.83168807    -0.03900
Br2441     Br  0.36317954  0.71616783  0.89471473     0.00600
Br2442     Br  0.33691109  0.75396036  0.81220465    -0.03200
Br2443     Br  0.35367497  0.69660249  0.81700462    -0.04100
Br2444     Br  0.41534803  0.76374772  0.79207260    -0.00100
C2445       C  0.24687134  0.56390505  0.72911301     0.01300
C2446       C  0.26252464  0.55174470  0.72595314     0.04200
C2447       C  0.26326487  0.53386810  0.73478528    -0.11900
C2448       C  0.24868452  0.52816591  0.74712381     0.23500
C2449       C  0.23343684  0.54040621  0.75082573    -0.12500
C2450       C  0.23228281  0.55802858  0.74164195     0.04900
C2451       C  0.24899857  0.50911175  0.75601314     0.27300
C2452       C  0.23948047  0.49395168  0.74736118    -0.13200
C2453       C  0.23763968  0.47646108  0.75682436     0.05400
C2454       C  0.24600471  0.47381290  0.77493851    -0.09100
C2455       C  0.25697966  0.48879946  0.78271364     0.06200
C2456       C  0.25787321  0.50647243  0.77356496    -0.13500
Br2457     Br  0.21391386  0.53270975  0.76841464    -0.05600
Br2458     Br  0.28338409  0.55947177  0.71000101     0.00100
Br2459     Br  0.22267270  0.45699503  0.74482864     0.00500
Br2460     Br  0.27070782  0.52751463  0.78535123    -0.03900
Br2461     Br  0.20967905  0.57303404  0.74532636     0.00600
Br2462     Br  0.28412151  0.51691599  0.72990383    -0.03200
Br2463     Br  0.22845372  0.49762582  0.72261809    -0.04100
Br2464     Br  0.27182084  0.48546864  0.80546261    -0.00100
C2465       C  0.28722148  0.63784698  0.71050900     0.01300
C2466       C  0.29730896  0.63650154  0.72764421     0.04200
C2467       C  0.31355855  0.64765749  0.73042263    -0.11900
C2468       C  0.31917904  0.66071586  0.71642139     0.23500
C2469       C  0.30876659  0.66249089  0.69959355    -0.12500
C2470       C  0.29301403  0.65086620  0.69648226     0.04900
C2471       C  0.33602070  0.67272208  0.71926798     0.27300
C2472       C  0.33462980  0.68928678  0.73021596    -0.13200
C2473       C  0.35059069  0.70083532  0.73275625     0.05400
C2474       C  0.36784400  0.69610612  0.72380275    -0.09100
C2475       C  0.36899525  0.67982262  0.71227370     0.06200
C2476       C  0.35315306  0.66802856  0.71022786    -0.13500
Br2477     Br  0.31593109  0.68125416  0.68100290    -0.05600
Br2478     Br  0.28900373  0.61930563  0.74717823     0.00100
Br2479     Br  0.34886083  0.72244813  0.74940879     0.00500
Br2480     Br  0.35473915  0.64551056  0.69482474    -0.03900
Br2481     Br  0.27892679  0.65369743  0.67329577     0.00600
Br2482     Br  0.32822420  0.64509777  0.75329052    -0.03200
Br2483     Br  0.31070410  0.69623806  0.74147381    -0.04100
Br2484     Br  0.39192449  0.67401988  0.69846526    -0.00100
C2485       C  0.26906920  0.78360593  0.46013794     0.01300
C2486       C  0.27196674  0.76985909  0.47434492     0.04200
C2487       C  0.26102668  0.77021625  0.49094387    -0.11900
C2488       C  0.24639893  0.78360584  0.49297688     0.23500
C2489       C  0.24201720  0.79587223  0.47788796    -0.12500
C2490       C  0.25359101  0.79623690  0.46165232     0.04900
C2491       C  0.23682474  0.78577003  0.51154911     0.27300
C2492       C  0.22376335  0.77210147  0.51783347    -0.13200
C2493       C  0.21674727  0.77282228  0.53646329     0.05400
C2494       C  0.22137504  0.78824905  0.54833846    -0.09100
C2495       C  0.23344763  0.80266185  0.54146059     0.06200
C2496       C  0.24172869  0.80100732  0.52343074    -0.13500
Br2497     Br  0.22063805  0.81277220  0.47996709    -0.05600
Br2498     Br  0.29082471  0.75030707  0.47110109     0.00100
Br2499     Br  0.20188355  0.75190535  0.54589669     0.00500
Br2500     Br  0.26000850  0.81957999  0.51505500    -0.03900
Br2501     Br  0.24903771  0.81532647  0.44260921     0.00600
Br2502     Br  0.26688307  0.75305837  0.51138965    -0.03200
Br2503     Br  0.21537787  0.75254369  0.50072834    -0.04100
Br2504     Br  0.23771972  0.82545128  0.55592893    -0.00100
C2505       C  0.20689324  0.74301117  0.61771193     0.01300
C2506       C  0.19352051  0.73470253  0.63003524     0.04200
C2507       C  0.19765343  0.71745788  0.63902553    -0.11900
C2508       C  0.21553371  0.70899792  0.63660512     0.23500
C2509       C  0.22900099  0.71733883  0.62448648    -0.12500
C2510       C  0.22454787  0.73411128  0.61472897     0.04900
C2511       C  0.22028921  0.69167404  0.64740154     0.27300
C2512       C  0.22713687  0.69319138  0.66602200    -0.13200
C2513       C  0.23065512  0.67679672  0.67674455     0.05400
C2514       C  0.22715595  0.65870955  0.66887130    -0.09100
C2515       C  0.22049734  0.65730210  0.65003798     0.06200
C2516       C  0.21725194  0.67376112  0.63933139    -0.13500
Br2517     Br  0.25374856  0.70607541  0.62187318    -0.05600
Br2518     Br  0.17035782  0.74781172  0.63627901     0.00100
Br2519     Br  0.24121986  0.67946926  0.70182404     0.00500
Br2520     Br  0.20851005  0.67193010  0.61353964    -0.03900
Br2521     Br  0.24258914  0.74475621  0.59713745     0.00600
Br2522     Br  0.17904233  0.70557002  0.65514875    -0.03200
Br2523     Br  0.23180451  0.71790431  0.67669188    -0.04100
Br2524     Br  0.21471906  0.63300277  0.63894692    -0.00100
C2525       C  0.16898627  0.80664320  0.64780038     0.01300
C2526       C  0.15108004  0.81565817  0.64683862     0.04200
C2527       C  0.14071175  0.81922620  0.66348538    -0.11900
C2528       C  0.14823622  0.81415067  0.68116921     0.23500
C2529       C  0.16622622  0.80562270  0.68224537    -0.12500
C2530       C  0.17654591  0.80174060  0.66563982     0.04900
C2531       C  0.13721568  0.81728479  0.69878085     0.27300
C2532       C  0.14023092  0.83369886  0.70965842    -0.13200
C2533       C  0.13223449  0.83519001  0.72786346     0.05400
C2534       C  0.12131597  0.82018173  0.73521741    -0.09100
C2535       C  0.11718857  0.80438788  0.72375933     0.06200
C2536       C  0.12496742  0.80304963  0.70547564    -0.13500
Br2537     Br  0.17653816  0.79899170  0.70665011    -0.05600
Br2538     Br  0.14081402  0.82399838  0.62289371     0.00100
Br2539     Br  0.13720554  0.85725103  0.74311310     0.00500
Br2540     Br  0.11908013  0.78166339  0.68958379    -0.03900
Br2541     Br  0.20046392  0.78864660  0.66755661     0.00600
Br2542     Br  0.11608379  0.83096564  0.66219283    -0.03200
Br2543     Br  0.15573086  0.85383647  0.69967361    -0.04100
Br2544     Br  0.10077722  0.78462254  0.73308696    -0.00100
C2545       C  0.77168044  0.96851447  0.75251445     0.01300
C2546       C  0.78089576  0.97329236  0.76963012     0.04200
C2547       C  0.77847500  0.99147309  0.77745306    -0.11900
C2548       C  0.76725255  0.00498537  0.76805948     0.23500
C2549       C  0.75688205  0.99977904  0.75193963    -0.12500
C2550       C  0.75861326  0.98141918  0.74454212     0.04900
C2551       C  0.76700636  0.02487702  0.77468578     0.27300
C2552       C  0.75281092  0.03112211  0.78717711    -0.13200
C2553       C  0.75323815  0.04972885  0.79420427     0.05400
C2554       C  0.76803902  0.06213991  0.78891212    -0.09100
C2555       C  0.78160871  0.05615421  0.77542336     0.06200
C2556       C  0.78117668  0.03748794  0.76853305    -0.13500
Br2557     Br  0.74092334  0.01814352  0.73955989    -0.05600
Br2558     Br  0.79764279  0.95567387  0.78204743     0.00100
Br2559     Br  0.73318187  0.05825196  0.81073455     0.00500
Br2560     Br  0.80056057  0.02877149  0.75130005    -0.03900
Br2561     Br  0.74237221  0.97381479  0.72393480     0.00600
Br2562     Br  0.79101375  0.99831128  0.80071958    -0.03200
Br2563     Br  0.73321411  0.01383818  0.79514421    -0.04100
Br2564     Br  0.80159624  0.07286150  0.76701714    -0.00100
C2565       C  0.74541206  0.74997214  0.46362082     0.01300
C2566       C  0.74104452  0.76484573  0.47624255     0.04200
C2567       C  0.74958372  0.76552164  0.49417820    -0.11900
C2568       C  0.76344061  0.75212337  0.49916750     0.23500
C2569       C  0.76854725  0.73781015  0.48629494    -0.12500
C2570       C  0.75907008  0.73626002  0.46887217     0.04900
C2571       C  0.77255196  0.75313309  0.51803486     0.27300
C2572       C  0.78706923  0.76632823  0.52130661    -0.13200
C2573       C  0.79515561  0.76799411  0.53941194     0.05400
C2574       C  0.78918417  0.75593729  0.55431403    -0.09100
C2575       C  0.77487100  0.74231763  0.55074240     0.06200
C2576       C  0.76642538  0.74117708  0.53274652    -0.13500
Br2577     Br  0.78859077  0.72034810  0.49262523    -0.05600
Br2578     Br  0.72401809  0.78488995  0.46885989     0.00100
Br2579     Br  0.81411439  0.78724925  0.54352321     0.00500
Br2580     Br  0.74664545  0.72290577  0.52797283    -0.03900
Br2581     Br  0.76384456  0.71430243  0.45325230     0.00600
Br2582     Br  0.74211476  0.78465647  0.51217055    -0.03200
Br2583     Br  0.79612414  0.78179601  0.50063742    -0.04100
Br2584     Br  0.76765598  0.72391741  0.56968833    -0.00100
C2585       C  0.81661954  0.80453302  0.62182873     0.01300
C2586       C  0.83185970  0.80995308  0.63357098     0.04200
C2587       C  0.82962809  0.82495385  0.64653022    -0.11900
C2588       C  0.81241740  0.83503043  0.64737191     0.23500
C2589       C  0.79782357  0.83067132  0.63451065    -0.12500
C2590       C  0.79986538  0.81539559  0.62188903     0.04900
C2591       C  0.80944319  0.84991031  0.66201423     0.27300
C2592       C  0.79829951  0.84606246  0.67816867    -0.13200
C2593       C  0.79424017  0.86053562  0.69130498     0.05400
C2594       C  0.80218264  0.87873414  0.68888882    -0.09100
C2595       C  0.81443509  0.88210911  0.67335906     0.06200
C2596       C  0.81745387  0.86798669  0.65964888    -0.13500
Br2597     Br  0.77472024  0.84523141  0.63473705    -0.05600
Br2598     Br  0.85536580  0.79603378  0.63308398     0.00100
Br2599     Br  0.77667564  0.85558349  0.71168877     0.00500
Br2600     Br  0.83199064  0.87359328  0.63717092    -0.03900
Br2601     Br  0.77959000  0.80913952  0.60472892     0.00600
Br2602     Br  0.84969385  0.83093663  0.66403927    -0.03200
Br2603     Br  0.78832597  0.82093392  0.68206169    -0.04100
Br2604     Br  0.82792887  0.90580418  0.67113839    -0.00100
C2605       C  0.77968495  0.78149324  0.05978663     0.01300
C2606       C  0.78730609  0.76988728  0.04522051     0.04200
C2607       C  0.77862835  0.76923149  0.02732907    -0.11900
C2608       C  0.76151518  0.77882758  0.02423697     0.23500
C2609       C  0.75261517  0.78838211  0.03926339    -0.12500
C2610       C  0.76167896  0.78997072  0.05693508     0.04900
C2611       C  0.75323757  0.77978495  0.00498277     0.27300
C2612       C  0.75782464  0.79511261  0.99309251    -0.13200
C2613       C  0.74853685  0.79734897  0.97564873     0.05400
C2614       C  0.73505396  0.78384777  0.96971871    -0.09100
C2615       C  0.73121074  0.76796377  0.98124768     0.06200
C2616       C  0.74012749  0.76607349  0.99894837    -0.13500
Br2617     Br  0.72814991  0.79988647  0.03518121    -0.05600
Br2618     Br  0.80896258  0.75374991  0.04969555     0.00100
Br2619     Br  0.75333027  0.81974064  0.96071629     0.00500
Br2620     Br  0.73425043  0.74490521  0.01515814    -0.03900
Br2621     Br  0.74915810  0.80441724  0.07647653     0.00600
Br2622     Br  0.79054001  0.75585942  0.00667905    -0.03200
Br2623     Br  0.77670498  0.81320080  0.00098434    -0.04100
Br2624     Br  0.71421165  0.74843061  0.97259164    -0.00100
C2625       C  0.55279629  0.79700933  0.75106130     0.01300
C2626       C  0.53900501  0.80376475  0.76400472     0.04200
C2627       C  0.52068432  0.79595789  0.76408467    -0.11900
C2628       C  0.51640260  0.78061555  0.75220384     0.23500
C2629       C  0.53042745  0.77286744  0.74039909    -0.12500
C2630       C  0.54833996  0.78138571  0.73925742     0.04900
C2631       C  0.49686079  0.77324607  0.75103318     0.27300
C2632       C  0.49013339  0.76032119  0.76462751    -0.13200
C2633       C  0.47223431  0.75197617  0.76235945     0.05400
C2634       C  0.46133327  0.75608164  0.74614638    -0.09100
C2635       C  0.46794422  0.76933514  0.73274357     0.06200
C2636       C  0.48553626  0.77815840  0.73539478    -0.13500
Br2637     Br  0.52465748  0.75089195  0.72515433    -0.05600
Br2638     Br  0.54495158  0.82338242  0.78206690     0.00100
Br2639     Br  0.46261677  0.73510339  0.78162427     0.00500
Br2640     Br  0.49461385  0.79640751  0.71714606    -0.03900
Br2641     Br  0.56555505  0.77243876  0.71988480     0.00600
Br2642     Br  0.50109188  0.80671454  0.77984617    -0.03200
Br2643     Br  0.50582230  0.75346034  0.78587416    -0.04100
Br2644     Br  0.45390521  0.77416216  0.70980340    -0.00100
C2645       C  0.67670054  0.80323922  0.87423951     0.01300
C2646       C  0.66109347  0.81569709  0.87540541     0.04200
C2647       C  0.64999201  0.81919848  0.85934250    -0.11900
C2648       C  0.65485977  0.81089521  0.84194107     0.23500
C2649       C  0.67068637  0.79887566  0.84056775    -0.12500
C2650       C  0.68147280  0.79481079  0.85675536     0.04900
C2651       C  0.64324406  0.81475510  0.82505248     0.27300
C2652       C  0.62837651  0.80240226  0.82026318    -0.13200
C2653       C  0.61786659  0.80559517  0.80373913     0.05400
C2654       C  0.62222334  0.82114473  0.79207014    -0.09100
C2655       C  0.63654082  0.83397870  0.79729703     0.06200
C2656       C  0.64718606  0.83066893  0.81372049    -0.13500
Br2657     Br  0.67737365  0.78790919  0.81644841    -0.05600
Br2658     Br  0.65536240  0.82889155  0.89866909     0.00100
Br2659     Br  0.59739413  0.78880374  0.79706350     0.00500
Br2660     Br  0.66775823  0.84736249  0.82029060    -0.03900
Br2661     Br  0.70204120  0.77689222  0.85501209     0.00600
Br2662     Br  0.62792674  0.83521739  0.86108710    -0.03200
Br2663     Br  0.62289279  0.78081714  0.83606700    -0.04100
Br2664     Br  0.64228592  0.85549413  0.78145640    -0.00100
C2665       C  0.73264788  0.90703042  0.71659487     0.01300
C2666       C  0.71974388  0.91057244  0.73140178     0.04200
C2667       C  0.70229074  0.90105823  0.73188494    -0.11900
C2668       C  0.69781397  0.88788200  0.71763872     0.23500
C2669       C  0.71025477  0.88513077  0.70227958    -0.12500
C2670       C  0.72760472  0.89486308  0.70164840     0.04900
C2671       C  0.68081056  0.87581484  0.71967943     0.27300
C2672       C  0.68232808  0.85821434  0.72888153    -0.13200
C2673       C  0.66611583  0.84706164  0.73187081     0.05400
C2674       C  0.64827578  0.85344399  0.72542677    -0.09100
C2675       C  0.64704017  0.87062518  0.71524012     0.06200
C2676       C  0.66320924  0.88197577  0.71277793    -0.13500
Br2677     Br  0.70403796  0.86700673  0.68287194    -0.05600
Br2678     Br  0.72621247  0.92819506  0.75121699     0.00100
Br2679     Br  0.66856540  0.82359400  0.74569955     0.00500
Br2680     Br  0.66128101  0.90625413  0.70045098    -0.03900
Br2681     Br  0.74505582  0.89039464  0.68108388     0.00600
Br2682     Br  0.68493115  0.90520536  0.75259142    -0.03200
Br2683     Br  0.70669038  0.84974316  0.73791894    -0.04100
Br2684     Br  0.62350561  0.87820360  0.70361598    -0.00100
C2685       C  0.96966645  0.74219010  0.77581998     0.01300
C2686       C  0.98070337  0.73993351  0.75931063     0.04200
C2687       C  0.99876991  0.74816630  0.75817953    -0.11900
C2688       C  0.00574182  0.75882485  0.77345733     0.23500
C2689       C  0.99466452  0.76128596  0.78987581    -0.12500
C2690       C  0.97664585  0.75295986  0.79108781     0.04900
C2691       C  0.02473445  0.76755005  0.77242997     0.27300
C2692       C  0.04014886  0.75876754  0.78137134    -0.13200
C2693       C  0.05741248  0.76849437  0.78333190     0.05400
C2694       C  0.05954091  0.78688239  0.77542896    -0.09100
C2695       C  0.04463876  0.79441651  0.76426483     0.06200
C2696       C  0.02708755  0.78512139  0.76347663    -0.13500
Br2697     Br  0.00448343  0.77572724  0.81088473    -0.05600
Br2698     Br  0.97094106  0.72590548  0.73803790     0.00100
Br2699     Br  0.07719499  0.75645097  0.79788071     0.00500
Br2700     Br  0.00587030  0.79678092  0.75080454    -0.03900
Br2701     Br  0.96214485  0.75540198  0.81415561     0.00600
Br2702     Br  0.01421586  0.74455020  0.73592775    -0.03200
Br2703     Br  0.03714903  0.73353387  0.79148246    -0.04100
Br2704     Br  0.04805152  0.81697802  0.74912381    -0.00100
C2705       C  0.90577625  0.71688833  0.72830069     0.01300
C2706       C  0.89296832  0.70287441  0.72215806     0.04200
C2707       C  0.88190632  0.70606069  0.70598317    -0.11900
C2708       C  0.88432710  0.72280944  0.69548292     0.23500
C2709       C  0.89833983  0.73597782  0.70063210    -0.12500
C2710       C  0.90875080  0.73325529  0.71729753     0.04900
C2711       C  0.87152242  0.72718905  0.67960699     0.27300
C2712       C  0.87522190  0.71973340  0.66156311    -0.13200
C2713       C  0.86371720  0.72486575  0.64623224     0.05400
C2714       C  0.84857701  0.73773589  0.64892283    -0.09100
C2715       C  0.84475894  0.74497378  0.66712018     0.06200
C2716       C  0.85612803  0.73953623  0.68247498    -0.13500
Br2717     Br  0.90259483  0.75811665  0.68518608    -0.05600
Br2718     Br  0.88928785  0.68004140  0.73672428     0.00100
Br2719     Br  0.86860551  0.71360717  0.62176984     0.00500
Br2720     Br  0.85088926  0.74919426  0.70749093    -0.03900
Br2721     Br  0.92657899  0.75226482  0.72537730     0.00600
Br2722     Br  0.86253719  0.68817053  0.69891408    -0.03200
Br2723     Br  0.89628923  0.70268278  0.65793689    -0.04100
Br2724     Br  0.82487917  0.76334141  0.67090523    -0.00100
C2725       C  0.74819393  0.56901002  0.78108349     0.01300
C2726       C  0.73699115  0.56374195  0.76535875     0.04200
C2727       C  0.73945446  0.54586218  0.75693015    -0.11900
C2728       C  0.75305571  0.53316790  0.76405594     0.23500
C2729       C  0.76519772  0.53888155  0.77871668    -0.12500
C2730       C  0.76281738  0.55672907  0.78722880     0.04900
C2731       C  0.75362992  0.51346415  0.75677622     0.27300
C2732       C  0.74053485  0.50009089  0.76364902    -0.13200
C2733       C  0.73876630  0.48231944  0.75481343     0.05400
C2734       C  0.75064534  0.47757602  0.73934455    -0.09100
C2735       C  0.76491632  0.49052587  0.73363269     0.06200
C2736       C  0.76615741  0.50848959  0.74213296    -0.13500
Br2737     Br  0.78485333  0.52199982  0.78731689    -0.05600
Br2738     Br  0.71726313  0.58012964  0.75593847     0.00100
Br2739     Br  0.71875971  0.46559000  0.76307278     0.00500
Br2740     Br  0.78456249  0.52667625  0.73331477    -0.03900
Br2741     Br  0.77997054  0.56423946  0.80714432     0.00600
Br2742     Br  0.72374740  0.53830430  0.73590440    -0.03200
Br2743     Br  0.72448530  0.50662466  0.78482876    -0.04100
Br2744     Br  0.78306869  0.48390214  0.71421866    -0.00100
C2745       C  0.87397801  0.68309822  0.79167384     0.01300
C2746       C  0.85638177  0.68824218  0.78372688     0.04200
C2747       C  0.84014282  0.67744380  0.78773894    -0.11900
C2748       C  0.84147128  0.66128209  0.79933064     0.23500
C2749       C  0.85901615  0.65587471  0.80693870    -0.12500
C2750       C  0.87522497  0.66682003  0.80329553     0.04900
C2751       C  0.82424467  0.65016678  0.80362666     0.27300
C2752       C  0.81383618  0.65394212  0.82023043    -0.13200
C2753       C  0.79619940  0.64518335  0.82313891     0.05400
C2754       C  0.78904320  0.63261224  0.80945475    -0.09100
C2755       C  0.79991782  0.62810261  0.79333015     0.06200
C2756       C  0.81758614  0.63677466  0.79049108    -0.13500
Br2757     Br  0.86069062  0.63345271  0.82244686    -0.05600
Br2758     Br  0.85448890  0.70937466  0.76648272     0.00100
Br2759     Br  0.78113751  0.65165535  0.84500800     0.00500
Br2760     Br  0.83247188  0.63082995  0.76835227    -0.03900
Br2761     Br  0.89884450  0.65976886  0.81513798     0.00600
Br2762     Br  0.81592248  0.68473182  0.77741357    -0.03200
Br2763     Br  0.82344631  0.67175448  0.83852168    -0.04100
Br2764     Br  0.79038113  0.61034318  0.77491976    -0.00100
C2765       C  0.71955975  0.65926664  0.84487664     0.01300
C2766       C  0.72252062  0.67836068  0.83955838     0.04200
C2767       C  0.71747054  0.69305910  0.85201569    -0.11900
C2768       C  0.71009415  0.68888835  0.87005929     0.23500
C2769       C  0.70612005  0.67008323  0.87506160    -0.12500
C2770       C  0.71059477  0.65529428  0.86248040     0.04900
C2771       C  0.70780746  0.70438498  0.88402404     0.27300
C2772       C  0.72334601  0.70970047  0.89528701    -0.13200
C2773       C  0.72284402  0.72673853  0.90555175     0.05400
C2774       C  0.70659340  0.73832484  0.90490127    -0.09100
C2775       C  0.69047617  0.73218901  0.89474386     0.06200
C2776       C  0.69108957  0.71517421  0.88442741    -0.13500
Br2777     Br  0.69450385  0.66477106  0.89924629    -0.05600
Br2778     Br  0.73465031  0.68485060  0.81591517     0.00100
Br2779     Br  0.74464318  0.73438911  0.92008024     0.00500
Br2780     Br  0.66942467  0.70700351  0.87000015    -0.03900
Br2781     Br  0.70356640  0.62977733  0.86950120     0.00600
Br2782     Br  0.72076515  0.71915436  0.84455459    -0.03200
Br2783     Br  0.74556573  0.69383303  0.89600715    -0.04100
Br2784     Br  0.66822145  0.74795584  0.89299338    -0.00100
C2785       C  0.94083356  0.94410325  0.70730395     0.01300
C2786       C  0.93031874  0.92855242  0.70067730     0.04200
C2787       C  0.91114740  0.92672248  0.70570055    -0.11900
C2788       C  0.90276969  0.93995417  0.71809846     0.23500
C2789       C  0.91386272  0.95441728  0.72615840    -0.12500
C2790       C  0.93276785  0.95676875  0.72040271     0.04900
C2791       C  0.88212995  0.93920932  0.72186462     0.27300
C2792       C  0.86997182  0.95218636  0.71293652    -0.13200
C2793       C  0.85030503  0.95103181  0.71576457     0.05400
C2794       C  0.84244557  0.93571865  0.72611650    -0.09100
C2795       C  0.85492422  0.92344498  0.73614008     0.06200
C2796       C  0.87466504  0.92547616  0.73415457    -0.13500
Br2797     Br  0.90295696  0.97119396  0.74473925    -0.05600
Br2798     Br  0.94191740  0.91031287  0.68396305     0.00100
Br2799     Br  0.83466516  0.97151677  0.70657200     0.00500
Br2800     Br  0.89177560  0.90915296  0.74790294    -0.03900
Br2801     Br  0.94764071  0.97741051  0.73027393     0.00600
Br2802     Br  0.89614489  0.90667169  0.69481853    -0.03200
Br2803     Br  0.88028119  0.97118012  0.69614126    -0.04100
Br2804     Br  0.84591993  0.90339955  0.75250925    -0.00100
C2805       C  0.17374970  0.94749911  0.56718292     0.01300
C2806       C  0.19227447  0.94010145  0.56806843     0.04200
C2807       C  0.19504140  0.92053103  0.57046136    -0.11900
C2808       C  0.17932126  0.90843816  0.57251806     0.23500
C2809       C  0.16085039  0.91580836  0.57178660    -0.12500
C2810       C  0.15802529  0.93521543  0.56864309     0.04900
C2811       C  0.18206162  0.88809801  0.57658022     0.27300
C2812       C  0.18123265  0.87467891  0.56186064    -0.13200
C2813       C  0.18283450  0.85526666  0.56599624     0.05400
C2814       C  0.18556649  0.84935237  0.58484029    -0.09100
C2815       C  0.18617872  0.86282179  0.59956261     0.06200
C2816       C  0.18444821  0.88214931  0.59542189    -0.13500
Br2817     Br  0.13947356  0.89933995  0.57625633    -0.05600
Br2818     Br  0.21385540  0.95668287  0.56562736     0.00100
Br2819     Br  0.18199790  0.83690815  0.54581479     0.00500
Br2820     Br  0.18528681  0.90058757  0.61555438    -0.03900
Br2821     Br  0.13248072  0.94487059  0.56734843     0.00600
Br2822     Br  0.22030679  0.91023024  0.57144562    -0.03200
Br2823     Br  0.17825870  0.88303891  0.53605954    -0.04100
Br2824     Br  0.18868937  0.85481744  0.62558998    -0.00100
C2825       C  0.03902036  0.96732332  0.65553042     0.01300
C2826       C  0.04079481  0.96256143  0.63628225     0.04200
C2827       C  0.05754217  0.96680469  0.62649456    -0.11900
C2828       C  0.07202944  0.97706723  0.63553229     0.23500
C2829       C  0.07026702  0.98190255  0.65482945    -0.12500
C2830       C  0.05390108  0.97661851  0.66493418     0.04900
C2831       C  0.08868349  0.98305759  0.62426909     0.27300
C2832       C  0.10581535  0.97299931  0.62560998    -0.13200
C2833       C  0.12090330  0.97738209  0.61336576     0.05400
C2834       C  0.11851715  0.99112857  0.59900929    -0.09100
C2835       C  0.10102930  0.00058956  0.59719035     0.06200
C2836       C  0.08654486  0.99726743  0.61043322    -0.13500
Br2837     Br  0.08999640  0.99603475  0.66726875    -0.05600
Br2838     Br  0.02011501  0.95072763  0.62308514     0.00100
Br2839     Br  0.14429453  0.96336917  0.61547303     0.00500
Br2840     Br  0.06357596  0.01205782  0.60960047    -0.03900
Br2841     Br  0.05152283  0.98248250  0.69150227     0.00600
Br2842     Br  0.06076760  0.95845326  0.60064804    -0.03200
Br2843     Br  0.10824549  0.95261100  0.64364766    -0.04100
Br2844     Br  0.09645922  0.01769682  0.57637138    -0.00100
C2845       C  0.08462202  0.23727800  0.68570056     0.01300
C2846       C  0.06528049  0.23625578  0.68103391     0.04200
C2847       C  0.05988800  0.23371050  0.66208722    -0.11900
C2848       C  0.07390154  0.23186692  0.64800826     0.23500
C2849       C  0.09309759  0.23473728  0.65249096    -0.12500
C2850       C  0.09847424  0.23757482  0.67135964     0.04900
C2851       C  0.06910857  0.22369310  0.62941892     0.27300
C2852       C  0.07044103  0.20394939  0.62703958    -0.13200
C2853       C  0.06777790  0.19591334  0.60909702     0.05400
C2854       C  0.06447040  0.20766479  0.59335733    -0.09100
C2855       C  0.06303087  0.22745234  0.59576200     0.06200
C2856       C  0.06502438  0.23542549  0.61388776    -0.13500
Br2857     Br  0.11212440  0.23290704  0.63294394    -0.05600
Br2858     Br  0.04633104  0.23775555  0.70071103     0.00100
Br2859     Br  0.06960549  0.16885979  0.60598518     0.00500
Br2860     Br  0.06247639  0.26234528  0.61757298    -0.03900
Br2861     Br  0.12495391  0.23986502  0.67768046     0.00600
Br2862     Br  0.03350379  0.23162893  0.65552594    -0.03200
Br2863     Br  0.07686639  0.18802504  0.64832092    -0.04100
Br2864     Br  0.05818198  0.24366060  0.57434282    -0.00100
C2865       C  0.08986336  0.14018845  0.55421196     0.01300
C2866       C  0.10658132  0.14210610  0.56503596     0.04200
C2867       C  0.11791970  0.12615600  0.56890626    -0.11900
C2868       C  0.11296820  0.10833284  0.56155121     0.23500
C2869       C  0.09622810  0.10634166  0.55091804    -0.12500
C2870       C  0.08464213  0.12215824  0.54734825     0.04900
C2871       C  0.12556544  0.09169505  0.56438815     0.27300
C2872       C  0.13989832  0.08766950  0.55107004    -0.13200
C2873       C  0.14983718  0.07041802  0.55199192     0.05400
C2874       C  0.14606658  0.05750938  0.56670954    -0.09100
C2875       C  0.13312929  0.06245671  0.58113522     0.06200
C2876       C  0.12255507  0.07929758  0.57971973    -0.13500
Br2877     Br  0.08935797  0.08184523  0.54101521    -0.05600
Br2878     Br  0.11389311  0.16644886  0.57500317     0.00100
Br2879     Br  0.16867598  0.06437664  0.53316300     0.00500
Br2880     Br  0.10336371  0.08508002  0.59829250    -0.03900
Br2881     Br  0.06222719  0.11914939  0.53201980     0.00600
Br2882     Br  0.14022514  0.12853293  0.58441592    -0.03200
Br2883     Br  0.14559944  0.10571365  0.53140373    -0.04100
Br2884     Br  0.12934199  0.04589153  0.60250406    -0.00100
C2885       C  0.94586268  0.84921513  0.44041949     0.01300
C2886       C  0.92806534  0.84997142  0.43130231     0.04200
C2887       C  0.92671304  0.84586379  0.41192054    -0.11900
C2888       C  0.94298700  0.84075195  0.40163649     0.23500
C2889       C  0.96064009  0.83954191  0.41066293    -0.12500
C2890       C  0.96218855  0.84399148  0.42996697     0.04900
C2891       C  0.94147175  0.83721447  0.38111681     0.27300
C2892       C  0.93543119  0.81951505  0.37463602    -0.13200
C2893       C  0.93189872  0.81666258  0.35528850     0.05400
C2894       C  0.93446038  0.83180363  0.34208051    -0.09100
C2895       C  0.94188438  0.84929973  0.34883602     0.06200
C2896       C  0.94520678  0.85188911  0.36828249    -0.13500
Br2897     Br  0.98266464  0.83189768  0.39634259    -0.05600
Br2898     Br  0.90555014  0.85790762  0.44471551     0.00100
Br2899     Br  0.92384432  0.79152069  0.34795429     0.00500
Br2900     Br  0.95456176  0.87579760  0.37775509    -0.03900
Br2901     Br  0.98680047  0.84252594  0.44179039     0.00600
Br2902     Br  0.90262366  0.84774223  0.39913941    -0.03200
Br2903     Br  0.93179586  0.79922096  0.39269270    -0.04100
Br2904     Br  0.94747144  0.87048807  0.33239503    -0.00100
C2905       C  0.95353853  0.88326878  0.54854459     0.01300
C2906       C  0.95150972  0.87135026  0.56447598     0.04200
C2907       C  0.95395809  0.87874797  0.58281729    -0.11900
C2908       C  0.95876618  0.89793996  0.58526927     0.23500
C2909       C  0.96020640  0.90995559  0.56942754    -0.12500
C2910       C  0.95732996  0.90273073  0.55115861     0.04900
C2911       C  0.96310098  0.90551828  0.60434621     0.27300
C2912       C  0.95008876  0.91747814  0.61354462    -0.13200
C2913       C  0.95539106  0.92707849  0.63013558     0.05400
C2914       C  0.97354466  0.92412599  0.63806362    -0.09100
C2915       C  0.98583194  0.91062600  0.62978266     0.06200
C2916       C  0.98084426  0.90186856  0.61263367    -0.13500
Br2917     Br  0.96657978  0.93634238  0.57273834    -0.05600
Br2918     Br  0.94648101  0.84470395  0.56134550     0.00100
Br2919     Br  0.93735375  0.94382813  0.64210712     0.00500
Br2920     Br  0.99877768  0.88563051  0.59986280    -0.03900
Br2921     Br  0.95787867  0.91989155  0.52983244     0.00600
Br2922     Br  0.95110354  0.86259815  0.60466582    -0.03200
Br2923     Br  0.92512481  0.92098624  0.60301970    -0.04100
Br2924     Br  0.00990014  0.90438512  0.64116979    -0.00100
C2925       C  0.80980248  0.19817104  0.43160114     0.01300
C2926       C  0.80842486  0.19221775  0.45057885     0.04200
C2927       C  0.80986967  0.17286334  0.45499755    -0.11900
C2928       C  0.81250671  0.15953007  0.44041188     0.23500
C2929       C  0.81293032  0.16543337  0.42139102    -0.12500
C2930       C  0.81165800  0.18473028  0.41697310     0.04900
C2931       C  0.81712124  0.13964450  0.44493503     0.27300
C2932       C  0.83625943  0.13420802  0.44565639    -0.13200
C2933       C  0.84104604  0.11513955  0.44825533     0.05400
C2934       C  0.82668791  0.10141313  0.45042256    -0.09100
C2935       C  0.80749982  0.10683034  0.44957529     0.06200
C2936       C  0.80272146  0.12600017  0.44695374    -0.13500
Br2937     Br  0.81612174  0.14702422  0.40145654    -0.05600
Br2938     Br  0.80402759  0.21052494  0.47036368     0.00100
Br2939     Br  0.86735908  0.10779997  0.44741984     0.00500
Br2940     Br  0.77656115  0.13368462  0.44599309    -0.03900
Br2941     Br  0.81364176  0.19273004  0.39088867     0.00600
Br2942     Br  0.80873091  0.16458120  0.48096636    -0.03200
Br2943     Br  0.85593196  0.15298801  0.44258491    -0.04100
Br2944     Br  0.78783085  0.08807751  0.45215784    -0.00100
C2945       C  0.86884771  0.99652215  0.46357056     0.01300
C2946       C  0.88753652  0.99599377  0.47097561     0.04200
C2947       C  0.89661553  0.97860387  0.47428095    -0.11900
C2948       C  0.88786287  0.96156918  0.46901766     0.23500
C2949       C  0.87008137  0.96196374  0.46008565    -0.12500
C2950       C  0.86039135  0.97928273  0.45763925     0.04900
C2951       C  0.89758950  0.94331647  0.47294007     0.27300
C2952       C  0.91117316  0.93625524  0.46015079    -0.13200
C2953       C  0.92169464  0.91995902  0.46470994     0.05400
C2954       C  0.91880824  0.91071635  0.48222072    -0.09100
C2955       C  0.90481556  0.91753549  0.49480088     0.06200
C2956       C  0.89420790  0.93374608  0.49011422    -0.13500
Br2957     Br  0.85925435  0.93859474  0.45104925    -0.05600
Br2958     Br  0.90195691  0.01887923  0.47505450     0.00100
Br2959     Br  0.93948856  0.90992541  0.44651880     0.00500
Br2960     Br  0.87526830  0.94321894  0.50738971    -0.03900
Br2961     Br  0.83549984  0.97875632  0.44644285     0.00600
Br2962     Br  0.92128719  0.97799057  0.48605026    -0.03200
Br2963     Br  0.91542349  0.94914558  0.43644857    -0.04100
Br2964     Br  0.90082945  0.90541971  0.51898587    -0.00100
C2965       C  0.18300858  0.09475287  0.33371891     0.01300
C2966       C  0.17160731  0.08745713  0.31905289     0.04200
C2967       C  0.15187008  0.08646532  0.32136254    -0.11900
C2968       C  0.14346976  0.09244656  0.33842790     0.23500
C2969       C  0.15482083  0.09947764  0.35319308    -0.12500
C2970       C  0.17455310  0.10073572  0.35083535     0.04900
C2971       C  0.12270721  0.09080841  0.34099411     0.27300
C2972       C  0.11093812  0.10656131  0.33808260    -0.13200
C2973       C  0.09122433  0.10502223  0.34078153     0.05400
C2974       C  0.08299556  0.08730757  0.34569244    -0.09100
C2975       C  0.09507455  0.07127559  0.34762534     0.06200
C2976       C  0.11481377  0.07329145  0.34598856    -0.13500
Br2977     Br  0.14318147  0.10780019  0.37647925    -0.05600
Br2978     Br  0.18298055  0.07843758  0.29586891     0.00100
Br2979     Br  0.07625975  0.12776954  0.33831447     0.00500
Br2980     Br  0.13139370  0.05206775  0.35086997    -0.03900
Br2981     Br  0.18966275  0.11197309  0.37062471     0.00600
Br2982     Br  0.13617320  0.07729529  0.30100981    -0.03200
Br2983     Br  0.12210921  0.13036555  0.33053989    -0.04100
Br2984     Br  0.08527187  0.04594933  0.35125012    -0.00100
C2985       C  0.97203240  0.07819974  0.37188816     0.01300
C2986       C  0.96350168  0.06047832  0.37580461     0.04200
C2987       C  0.94580880  0.05957318  0.38474962    -0.11900
C2988       C  0.93625683  0.07626896  0.38962064     0.23500
C2989       C  0.94397573  0.09396924  0.38485958    -0.12500
C2990       C  0.96205776  0.09502917  0.37646692     0.04900
C2991       C  0.91930990  0.07485524  0.40181843     0.27300
C2992       C  0.90156954  0.07108269  0.39385956    -0.13200
C2993       C  0.88609585  0.06655118  0.40557409     0.05400
C2994       C  0.88861561  0.06468500  0.42555458    -0.09100
C2995       C  0.90650951  0.06965873  0.43343894     0.06200
C2996       C  0.92161383  0.07486284  0.42153541    -0.13500
Br2997     Br  0.92998360  0.11666410  0.39079261    -0.05600
Br2998     Br  0.97586860  0.03701087  0.36981145     0.00100
Br2999     Br  0.86168341  0.06394684  0.39340718     0.00500
Br3000     Br  0.94610607  0.08117277  0.43205291    -0.03900
Br3001     Br  0.97377636  0.11960427  0.37388204     0.00600
Br3002     Br  0.93494312  0.03532373  0.39143729    -0.03200
Br3003     Br  0.89891857  0.07135705  0.36663178    -0.04100
Br3004     Br  0.91157270  0.06924275  0.46035402    -0.00100
C3005       C  0.04901497  0.16551314  0.48894071     0.01300
C3006       C  0.06362917  0.15646036  0.47872579     0.04200
C3007       C  0.05977660  0.14814978  0.46103859    -0.11900
C3008       C  0.04127309  0.14851110  0.45362446     0.23500
C3009       C  0.02685775  0.15821966  0.46340698    -0.12500
C3010       C  0.03075467  0.16689767  0.48090450     0.04900
C3011       C  0.03688045  0.13792112  0.43598418     0.27300
C3012       C  0.04062652  0.14597517  0.41816009    -0.13200
C3013       C  0.03812417  0.13522063  0.40152872     0.05400
C3014       C  0.03132283  0.11632922  0.40265359    -0.09100
C3015       C  0.02588723  0.10906704  0.42057979     0.06200
C3016       C  0.02927619  0.11956776  0.43714163    -0.13500
Br3017     Br  0.00172182  0.15939709  0.45283226    -0.05600
Br3018     Br  0.08870104  0.15432532  0.48933941     0.00100
Br3019     Br  0.04464568  0.14672736  0.37760445     0.00500
Br3020     Br  0.02382576  0.10867308  0.46162583    -0.03900
Br3021     Br  0.01121513  0.18141307  0.49339070     0.00600
Br3022     Br  0.07976376  0.13586838  0.44702933    -0.03200
Br3023     Br  0.04942702  0.17180775  0.41677176    -0.04100
Br3024     Br  0.01228516  0.08540541  0.42275281    -0.00100
C3025       C  0.92997376  0.07877196  0.83965245     0.01300
C3026       C  0.91581547  0.07735872  0.85374496     0.04200
C3027       C  0.89666547  0.07844278  0.84871249    -0.11900
C3028       C  0.89157647  0.08123082  0.82969412     0.23500
C3029       C  0.90557869  0.08237693  0.81555759    -0.12500
C3030       C  0.92481194  0.08136035  0.82052273     0.04900
C3031       C  0.87167449  0.08552843  0.82517685     0.27300
C3032       C  0.85853776  0.07086040  0.82213429    -0.13200
C3033       C  0.83919897  0.07515355  0.82023133     0.05400
C3034       C  0.83313836  0.09409860  0.82137970    -0.09100
C3035       C  0.84638886  0.10877734  0.82388670     0.06200
C3036       C  0.86564507  0.10448799  0.82572243    -0.13500
Br3037     Br  0.89823502  0.08567144  0.78948658    -0.05600
Br3038     Br  0.92242556  0.07575355  0.88024210     0.00100
Br3039     Br  0.82108301  0.05523371  0.81574114     0.00500
Br3040     Br  0.88379985  0.12453907  0.82967499    -0.03900
Br3041     Br  0.94388422  0.08358943  0.80103264     0.00600
Br3042     Br  0.87724862  0.07688851  0.86795930    -0.03200
Br3043     Br  0.86710402  0.04500023  0.82093636    -0.04100
Br3044     Br  0.83813510  0.13474411  0.82594250    -0.00100
C3045       C  0.99548783  0.04275686  0.81143419     0.01300
C3046       C  0.98055034  0.03171128  0.80415559     0.04200
C3047       C  0.98336026  0.02081172  0.78777121    -0.11900
C3048       C  0.00130786  0.02030952  0.77903558     0.23500
C3049       C  0.01640479  0.03083296  0.78666440    -0.12500
C3050       C  0.01335623  0.04249861  0.80250594     0.04900
C3051       C  0.00403766  0.00899817  0.76157858     0.27300
C3052       C  0.00579372  0.98923611  0.76273886    -0.13200
C3053       C  0.00557872  0.97817609  0.74617645     0.05400
C3054       C  0.00420924  0.98703637  0.72813253    -0.09100
C3055       C  0.00481570  0.00708777  0.72715513     0.06200
C3056       C  0.00398158  0.01794338  0.74380916    -0.13500
Br3057     Br  0.04128004  0.02895134  0.77551279    -0.05600
Br3058     Br  0.95589478  0.03217613  0.81602745     0.00100
Br3059     Br  0.00625504  0.95097607  0.74914904     0.00500
Br3060     Br  0.00183901  0.04515556  0.74235275    -0.03900
Br3061     Br  0.03370250  0.05799002  0.81198506     0.00600
Br3062     Br  0.96249917  0.00683273  0.77701554    -0.03200
Br3063     Br  0.00778108  0.97739319  0.78731830    -0.04100
Br3064     Br  0.00777945  0.02012970  0.70326426    -0.00100
C3065       C  0.18025347  0.09803690  0.96144197     0.01300
C3066       C  0.16688221  0.11201344  0.95658797     0.04200
C3067       C  0.17295045  0.13031804  0.95177575    -0.11900
C3068       C  0.19234499  0.13488072  0.95233447     0.23500
C3069       C  0.20567409  0.12111740  0.95784608    -0.12500
C3070       C  0.19963637  0.10266162  0.96233572     0.04900
C3071       C  0.19862016  0.15401364  0.94645021     0.27300
C3072       C  0.20262324  0.15763671  0.92725998    -0.13200
C3073       C  0.20705012  0.17610106  0.92128481     0.05400
C3074       C  0.20725802  0.19107457  0.93450208    -0.09100
C3075       C  0.20383437  0.18729506  0.95382863     0.06200
C3076       C  0.19944667  0.16879848  0.95976602    -0.13500
Br3077     Br  0.23218617  0.12752353  0.95871971    -0.05600
Br3078     Br  0.14025364  0.10595711  0.95577310     0.00100
Br3079     Br  0.21153312  0.18092423  0.89475492     0.00500
Br3080     Br  0.19380005  0.16373192  0.98600610    -0.03900
Br3081     Br  0.21777929  0.08382028  0.97014017     0.00600
Br3082     Br  0.15480382  0.14899166  0.94355184    -0.03200
Br3083     Br  0.20095816  0.13736277  0.90904666    -0.04100
Br3084     Br  0.20551969  0.20737485  0.97226489    -0.00100
C3085       C  0.11701085  0.06055175  0.93433342     0.01300
C3086       C  0.12027963  0.07047421  0.91722592     0.04200
C3087       C  0.10510036  0.07449977  0.90505990    -0.11900
C3088       C  0.08671415  0.06870068  0.90995209     0.23500
C3089       C  0.08327410  0.05952342  0.92729013    -0.12500
C3090       C  0.09835560  0.05544957  0.93951130     0.04900
C3091       C  0.07085410  0.07157129  0.89673388     0.27300
C3092       C  0.05982264  0.08808397  0.89792528    -0.13200
C3093       C  0.04292867  0.08943802  0.88758280     0.05400
C3094       C  0.03691359  0.07406365  0.87637178    -0.09100
C3095       C  0.04834604  0.05780570  0.87469648     0.06200
C3096       C  0.06552819  0.05675542  0.88456899    -0.13500
Br3097     Br  0.05777777  0.05215338  0.93399838    -0.05600
Br3098     Br  0.14533082  0.07927650  0.91055165     0.00100
Br3099     Br  0.02722031  0.11162173  0.89032147     0.00500
Br3100     Br  0.08149209  0.03471748  0.88216801    -0.03900
Br3101     Br  0.09321840  0.04188752  0.96272774     0.00600
Br3102     Br  0.10934536  0.08779662  0.88157541    -0.03200
Br3103     Br  0.06735544  0.10825744  0.91468600    -0.04100
Br3104     Br  0.04023123  0.03668558  0.85944609    -0.00100
C3105       C  0.08647142  0.81968856  0.84362825     0.01300
C3106       C  0.06698895  0.82078239  0.84796505     0.04200
C3107       C  0.06105585  0.82419687  0.86668569    -0.11900
C3108       C  0.07456147  0.82618580  0.88118400     0.23500
C3109       C  0.09396568  0.82409361  0.87703770    -0.12500
C3110       C  0.09993112  0.82070119  0.85833020     0.04900
C3111       C  0.06863067  0.83192404  0.90051349     0.27300
C3112       C  0.06752708  0.85129636  0.90500792    -0.13200
C3113       C  0.06367676  0.85698648  0.92366721     0.05400
C3114       C  0.06053394  0.84332519  0.93788014    -0.09100
C3115       C  0.06090133  0.82393123  0.93326261     0.06200
C3116       C  0.06512674  0.81822995  0.91460764    -0.13500
Br3117     Br  0.11240413  0.82708045  0.89693384    -0.05600
Br3118     Br  0.04840821  0.81707090  0.82830260     0.00100
Br3119     Br  0.06368431  0.88356917  0.92988907     0.00500
Br3120     Br  0.06639198  0.79173731  0.90829135    -0.03900
Br3121     Br  0.12663446  0.81862614  0.85284951     0.00600
Br3122     Br  0.03450834  0.82709350  0.87239171    -0.03200
Br3123     Br  0.07166714  0.87004303  0.88555908    -0.04100
Br3124     Br  0.05499573  0.80529615  0.95233976    -0.00100
C3125       C  0.08132288  0.90968967  0.97505623     0.01300
C3126       C  0.09981605  0.90786340  0.96744455     0.04200
C3127       C  0.11133678  0.92395556  0.96506375    -0.11900
C3128       C  0.10445153  0.94193290  0.97007986     0.23500
C3129       C  0.08565396  0.94399999  0.97631130    -0.12500
C3130       C  0.07398787  0.92802974  0.97844288     0.04900
C3131       C  0.11689917  0.95880679  0.96926512     0.27300
C3132       C  0.12573509  0.96529550  0.98588888    -0.13200
C3133       C  0.13557717  0.98261247  0.98586757     0.05400
C3134       C  0.13680876  0.99342776  0.96909286    -0.09100
C3135       C  0.12798058  0.98679085  0.95241275     0.06200
C3136       C  0.11831593  0.96938623  0.95245894    -0.13500
Br3137     Br  0.07616939  0.96887594  0.98262533    -0.05600
Br3138     Br  0.10921722  0.88354682  0.95915759     0.00100
Br3139     Br  0.14717278  0.99143197  0.00893558     0.00500
Br3140     Br  0.10647513  0.96017531  0.92965547    -0.03900
Br3141     Br  0.04819405  0.93192035  0.98630276     0.00600
Br3142     Br  0.13671713  0.92145778  0.95527164    -0.03200
Br3143     Br  0.12391518  0.95046542  0.00877892    -0.04100
Br3144     Br  0.12721537  0.00236278  0.92995504    -0.00100
C3145       C  0.18207181  0.94713628  0.20112375     0.01300
C3146       C  0.16980568  0.94879923  0.21697831     0.04200
C3147       C  0.15031282  0.95161233  0.21435491    -0.11900
C3148       C  0.14308560  0.95463061  0.19610492     0.23500
C3149       C  0.15539888  0.95501066  0.18043390    -0.12500
C3150       C  0.17478911  0.95098490  0.18279005     0.04900
C3151       C  0.12248845  0.95750138  0.19342109     0.27300
C3152       C  0.11119323  0.94257527  0.18659866    -0.13200
C3153       C  0.09174031  0.94539540  0.18352223     0.05400
C3154       C  0.08342573  0.96307688  0.18772139    -0.09100
C3155       C  0.09467755  0.97780039  0.19521536     0.06200
C3156       C  0.11421289  0.97509535  0.19775932    -0.13500
Br3157     Br  0.14540934  0.96083927  0.15565261    -0.05600
Br3158     Br  0.17947817  0.94906803  0.24258051     0.00100
Br3159     Br  0.07695220  0.92532289  0.17234532     0.00500
Br3160     Br  0.12978840  0.99559647  0.20688306    -0.03900
Br3161     Br  0.19067150  0.95061937  0.16051209     0.00600
Br3162     Br  0.13329183  0.95086155  0.23578520    -0.03200
Br3163     Br  0.12253952  0.91831625  0.18120517    -0.04100
Br3164     Br  0.08335671  0.00154284  0.20270305    -0.00100
C3165       C  0.02413558  0.04886284  0.31055454     0.01300
C3166       C  0.03572843  0.05442148  0.29518935     0.04200
C3167       C  0.03479088  0.04470666  0.27785803    -0.11900
C3168       C  0.02270476  0.02902901  0.27589202     0.23500
C3169       C  0.01172850  0.02289241  0.29132948    -0.12500
C3170       C  0.01248734  0.03272529  0.30863337     0.04900
C3171       C  0.02223319  0.01849337  0.25779406     0.27300
C3172       C  0.01020618  0.02439862  0.24304110    -0.13200
C3173       C  0.01058315  0.01494794  0.22552392     0.05400
C3174       C  0.02289179  0.99951314  0.22282838    -0.09100
C3175       C  0.03436794  0.99314491  0.23787530     0.06200
C3176       C  0.03413659  0.00273034  0.25527201    -0.13500
Br3177     Br  0.99555524  0.00102243  0.28852127    -0.05600
Br3178     Br  0.05402843  0.07448513  0.29818132     0.00100
Br3179     Br  0.99367061  0.02252546  0.20550536     0.00500
Br3180     Br  0.05034134  0.99450567  0.27565182    -0.03900
Br3181     Br  0.99726333  0.02397438  0.32927695     0.00600
Br3182     Br  0.05008825  0.05277423  0.25667897    -0.03200
Br3183     Br  0.99323645  0.04539530  0.24695751    -0.04100
Br3184     Br  0.05093479  0.97164800  0.23461310    -0.00100
C3185       C  0.04611098  0.88799212  0.04186612     0.01300
C3186       C  0.03664283  0.90578764  0.04264906     0.04200
C3187       C  0.03780938  0.91710327  0.05893384    -0.11900
C3188       C  0.04615969  0.91000772  0.07545296     0.23500
C3189       C  0.05417441  0.89180133  0.07548379    -0.12500
C3190       C  0.05466278  0.88099447  0.05867783     0.04900
C3191       C  0.04409064  0.92093557  0.09324699     0.27300
C3192       C  0.05874676  0.93281846  0.09971202    -0.13200
C3193       C  0.05590556  0.94421372  0.11582889     0.05400
C3194       C  0.03817552  0.94417984  0.12506394    -0.09100
C3195       C  0.02342630  0.93259469  0.11828079     0.06200
C3196       C  0.02653278  0.92068685  0.10271932    -0.13500
Br3197     Br  0.06376961  0.88154053  0.09890401    -0.05600
Br3198     Br  0.02052646  0.91493322  0.02259527     0.00100
Br3199     Br  0.07651526  0.95917133  0.12569271     0.00500
Br3200     Br  0.00659068  0.90412430  0.09410650    -0.03900
Br3201     Br  0.06560059  0.85596723  0.05968999     0.00600
Br3202     Br  0.02757630  0.94252793  0.05894809    -0.03200
Br3203     Br  0.08252579  0.93364474  0.08629814    -0.04100
Br3204     Br  0.99851558  0.93379206  0.12958285    -0.00100
C3205       C  0.81513572  0.84887549  0.09055239     0.01300
C3206       C  0.79853420  0.86020783  0.08987858     0.04200
C3207       C  0.80000529  0.87996366  0.08857053    -0.11900
C3208       C  0.81785023  0.88843555  0.08657919     0.23500
C3209       C  0.83431456  0.87731236  0.08603847    -0.12500
C3210       C  0.83309510  0.85765987  0.08852275     0.04900
C3211       C  0.81949110  0.90912430  0.08484674     0.27300
C3212       C  0.81640595  0.91775893  0.06720074    -0.13200
C3213       C  0.82020828  0.93707709  0.06487582     0.05400
C3214       C  0.82702954  0.94780277  0.08030605    -0.09100
C3215       C  0.82972016  0.93916094  0.09810582     0.06200
C3216       C  0.82573330  0.91985542  0.10040084    -0.13500
Br3217     Br  0.85868102  0.88929065  0.08231214    -0.05600
Br3218     Br  0.77348644  0.84919412  0.08992955     0.00100
Br3219     Br  0.81640700  0.94846080  0.04029931     0.00500
Br3220     Br  0.82969741  0.90776414  0.12459083    -0.03900
Br3221     Br  0.85647842  0.84365535  0.09044411     0.00600
Br3222     Br  0.77763223  0.89565185  0.08995778    -0.03200
Br3223     Br  0.80770317  0.90285070  0.04601686    -0.04100
Br3224     Br  0.84087349  0.95304383  0.11882697    -0.00100
C3225       C  0.88853321  0.99165927  0.10617765     0.01300
C3226       C  0.89431081  0.00545366  0.11947244     0.04200
C3227       C  0.91075017  0.00264245  0.13031871    -0.11900
C3228       C  0.92168027  0.98621213  0.12779613     0.23500
C3229       C  0.91550883  0.97199379  0.11530810    -0.12500
C3230       C  0.89889982  0.97460188  0.10463238     0.04900
C3231       C  0.94046306  0.98462358  0.13701717     0.27300
C3232       C  0.95678199  0.98982771  0.12683139    -0.13200
C3233       C  0.97477258  0.98753543  0.13495235     0.05400
C3234       C  0.97650033  0.98137795  0.15396344    -0.09100
C3235       C  0.95998482  0.97710289  0.16445920     0.06200
C3236       C  0.94208335  0.97804619  0.15574928    -0.13500
Br3237     Br  0.93012613  0.94906387  0.11274190    -0.05600
Br3238     Br  0.88067639  0.02889470  0.12218655     0.00100
Br3239     Br  0.99683076  0.99153778  0.11917957     0.00500
Br3240     Br  0.91972621  0.97005700  0.16925697    -0.03900
Br3241     Br  0.89009827  0.95436989  0.08853411     0.00600
Br3242     Br  0.91874064  0.02156094  0.14831545    -0.03200
Br3243     Br  0.95437064  0.00015165  0.10161638    -0.04100
Br3244     Br  0.96158737  0.97112897  0.19105415    -0.00100
C3245       C  0.92937689  0.21220737  0.18607104     0.01300
C3246       C  0.91334701  0.21220494  0.17419054     0.04200
C3247       C  0.91565542  0.21081855  0.15456710    -0.11900
C3248       C  0.93393604  0.20940314  0.14681895     0.23500
C3249       C  0.94997363  0.20945619  0.15861327    -0.12500
C3250       C  0.94770571  0.21090103  0.17830407     0.04900
C3251       C  0.93603711  0.20595083  0.12641477     0.27300
C3252       C  0.93635128  0.18718688  0.11989530    -0.13200
C3253       C  0.93704870  0.18356365  0.10045432     0.05400
C3254       C  0.93820044  0.19873266  0.08751889    -0.09100
C3255       C  0.93794910  0.21756278  0.09404641     0.06200
C3256       C  0.93662119  0.22116800  0.11356179    -0.13500
Br3257     Br  0.97491255  0.20707413  0.14770037    -0.05600
Br3258     Br  0.88808297  0.21306303  0.18472450     0.00100
Br3259     Br  0.93533792  0.15774755  0.09163618     0.00500
Br3260     Br  0.93553032  0.24681199  0.12281283    -0.03900
Br3261     Br  0.96965144  0.21167860  0.19450875     0.00600
Br3262     Br  0.89377135  0.21014015  0.13823193    -0.03200
Br3263     Br  0.93569574  0.16645755  0.13772949    -0.04100
Br3264     Br  0.94023113  0.23831211  0.07643867    -0.00100
C3265       C  0.94741933  0.16484838  0.98025757     0.01300
C3266       C  0.96333909  0.16882975  0.96896487     0.04200
C3267       C  0.96630068  0.15876138  0.95210463    -0.11900
C3268       C  0.95344630  0.14454561  0.94665909     0.23500
C3269       C  0.93704976  0.14114639  0.95751390    -0.12500
C3270       C  0.93408557  0.15122166  0.97441051     0.04900
C3271       C  0.95826992  0.13194516  0.93065968     0.27300
C3272       C  0.95215473  0.13624476  0.91224084    -0.13200
C3273       C  0.95750430  0.12458029  0.89701679     0.05400
C3274       C  0.96941916  0.10879189  0.90016233    -0.09100
C3275       C  0.97555644  0.10459560  0.91871549     0.06200
C3276       C  0.96967162  0.11595288  0.93394049    -0.13500
Br3277     Br  0.91927868  0.12196596  0.94969660    -0.05600
Br3278     Br  0.98149930  0.18749368  0.97716201     0.00100
Br3279     Br  0.94766469  0.12993149  0.87209720     0.00500
Br3280     Br  0.97720931  0.10970691  0.95945392    -0.03900
Br3281     Br  0.91277944  0.14503920  0.99041056     0.00600
Br3282     Br  0.98844229  0.16372777  0.93689448    -0.03200
Br3283     Br  0.93641708  0.15815357  0.90804208    -0.04100
Br3284     Br  0.99304251  0.08411141  0.92337009    -0.00100
C3285       C  0.90914988  0.13992110  0.04364720     0.01300
C3286       C  0.88907645  0.14197647  0.04478213     0.04200
C3287       C  0.87750024  0.12595527  0.04719756    -0.11900
C3288       C  0.88573223  0.10814122  0.04996329     0.23500
C3289       C  0.90545761  0.10596821  0.04962343    -0.12500
C3290       C  0.91715248  0.12150887  0.04577561     0.04900
C3291       C  0.87392621  0.09127210  0.05319798     0.27300
C3292       C  0.86752338  0.08709497  0.07152988    -0.13200
C3293       C  0.86004249  0.06914020  0.07562974     0.05400
C3294       C  0.85985662  0.05487759  0.06144015    -0.09100
C3295       C  0.86556351  0.05969357  0.04264817     0.06200
C3296       C  0.87194050  0.07804081  0.03858149    -0.13500
Br3297     Br  0.91641601  0.08127056  0.05439990    -0.05600
Br3298     Br  0.87660425  0.16634153  0.04402103     0.00100
Br3299     Br  0.85141139  0.06459292  0.10119751     0.00500
Br3300     Br  0.87926451  0.08502977  0.01309771    -0.03900
Br3301     Br  0.94391650  0.11619691  0.04265491     0.00600
Br3302     Br  0.85021993  0.12810674  0.04658257    -0.03200
Br3303     Br  0.87028914  0.10578167  0.09130413    -0.04100
Br3304     Br  0.86557596  0.04173780  0.02188340    -0.00100
C3305       C  0.70153286  0.84875331  0.92998373     0.01300
C3306       C  0.70693706  0.86057896  0.91467078     0.04200
C3307       C  0.70563569  0.88035594  0.91632586    -0.11900
C3308       C  0.69723915  0.88848094  0.93244425     0.23500
C3309       C  0.69048022  0.87674873  0.94710499    -0.12500
C3310       C  0.69326610  0.85702451  0.94625960     0.04900
C3311       C  0.69521621  0.90935931  0.93382643     0.27300
C3312       C  0.70748632  0.91986459  0.94553248    -0.13200
C3313       C  0.70492344  0.93951388  0.94759558     0.05400
C3314       C  0.69035244  0.94875637  0.93765687    -0.09100
C3315       C  0.67867849  0.93839343  0.92527306     0.06200
C3316       C  0.68094120  0.91871373  0.92352262    -0.13500
Br3317     Br  0.67686432  0.88778628  0.96808521    -0.05600
Br3318     Br  0.71430937  0.85004875  0.89049712     0.00100
Br3319     Br  0.72130303  0.95380454  0.96402783     0.00500
Br3320     Br  0.66405398  0.90445935  0.90748857    -0.03900
Br3321     Br  0.68632990  0.84174613  0.96784816     0.00600
Br3322     Br  0.71525477  0.89644766  0.89639571    -0.03200
Br3323     Br  0.72764025  0.90722014  0.95888717    -0.04100
Br3324     Br  0.65907203  0.95104984  0.91118099    -0.00100
C3325       C  0.79870786  0.01048006  0.03895362     0.01300
C3326       C  0.78359615  0.99751463  0.03925049     0.04200
C3327       C  0.76920856  0.99886510  0.02566444    -0.11900
C3328       C  0.76894778  0.01424515  0.01299490     0.23500
C3329       C  0.78311591  0.02818198  0.01383152    -0.12500
C3330       C  0.79809591  0.02620796  0.02671969     0.04900
C3331       C  0.75319959  0.01610414  0.99945250     0.27300
C3332       C  0.75482840  0.00838543  0.98118148    -0.13200
C3333       C  0.73904387  0.00817681  0.96911180     0.05400
C3334       C  0.72140902  0.01491076  0.97576032    -0.09100
C3335       C  0.72034285  0.02421397  0.99339782     0.06200
C3336       C  0.73626307  0.02483276  0.00521638    -0.13500
Br3337     Br  0.78180109  0.04993415  0.99737936    -0.05600
Br3338     Br  0.78188086  0.97874296  0.05898284     0.00100
Br3339     Br  0.74171956  0.99806546  0.94387631     0.00500
Br3340     Br  0.73485013  0.03710471  0.02957283    -0.03900
Br3341     Br  0.81670638  0.04590954  0.02882194     0.00600
Br3342     Br  0.75016569  0.97937094  0.02398701    -0.03200
Br3343     Br  0.77845897  0.99721997  0.97320136    -0.04100
Br3344     Br  0.69727087  0.03669390  0.00112665    -0.00100
C3345       C  0.56819273  0.19073952  0.93434486     0.01300
C3346       C  0.58642219  0.18688836  0.92697841     0.04200
C3347       C  0.59011959  0.18973018  0.90765827    -0.11900
C3348       C  0.57584311  0.19691711  0.89582657     0.23500
C3349       C  0.55775138  0.20093124  0.90312794    -0.12500
C3350       C  0.55378495  0.19751323  0.92227645     0.04900
C3351       C  0.57988673  0.20073006  0.87570662     0.27300
C3352       C  0.58912174  0.21751561  0.87057632    -0.13200
C3353       C  0.59279071  0.22149726  0.85142734     0.05400
C3354       C  0.58630779  0.20888121  0.83703142    -0.09100
C3355       C  0.57570519  0.19259996  0.84255963     0.06200
C3356       C  0.57348433  0.18814809  0.86180397    -0.13500
Br3357     Br  0.53846561  0.21128434  0.88677303    -0.05600
Br3358     Br  0.60616735  0.17661770  0.94286346     0.00100
Br3359     Br  0.60668936  0.24454112  0.84612427     0.00500
Br3360     Br  0.56171263  0.16461498  0.86939819    -0.03900
Br3361     Br  0.52859679  0.20245955  0.93175413     0.00600
Br3362     Br  0.61461212  0.18348312  0.89718303    -0.03200
Br3363     Br  0.59665896  0.23508480  0.89018208    -0.04100
Br3364     Br  0.56250358  0.17665368  0.82461180    -0.00100
C3365       C  0.64831607  0.05199100  0.95607458     0.01300
C3366       C  0.62858506  0.05060118  0.95926713     0.04200
C3367       C  0.61780501  0.06693009  0.96240827    -0.11900
C3368       C  0.62647221  0.08480871  0.96174754     0.23500
C3369       C  0.64594877  0.08638678  0.95767911    -0.12500
C3370       C  0.65695340  0.06995495  0.95508742     0.04900
C3371       C  0.61499214  0.10170133  0.96627711     0.27300
C3372       C  0.60269199  0.10933873  0.95260130    -0.13200
C3373       C  0.58999624  0.12379893  0.95763760     0.05400
C3374       C  0.58965608  0.13066860  0.97638533    -0.09100
C3375       C  0.60197761  0.12299771  0.99004493     0.06200
C3376       C  0.61478049  0.10868573  0.98493464    -0.13500
Br3377     Br  0.65741515  0.11107834  0.95592371    -0.05600
Br3378     Br  0.61579206  0.02645802  0.95869473     0.00100
Br3379     Br  0.57347761  0.13442100  0.93865819     0.00500
Br3380     Br  0.63189940  0.09839382  0.00353628    -0.03900
Br3381     Br  0.68391876  0.07205627  0.95139273     0.00600
Br3382     Br  0.59107037  0.06483020  0.96801928    -0.03200
Br3383     Br  0.60323193  0.09979196  0.92701987    -0.04100
Br3384     Br  0.60047342  0.13122139  0.01606514    -0.00100
C3385       C  0.57995893  0.08690947  0.18884424     0.01300
C3386       C  0.58809862  0.10507133  0.18680726     0.04200
C3387       C  0.60759739  0.10761582  0.18975558    -0.11900
C3388       C  0.61906799  0.09209225  0.19467658     0.23500
C3389       C  0.61099383  0.07404143  0.19699710    -0.12500
C3390       C  0.59146696  0.07143761  0.19419872     0.04900
C3391       C  0.63952215  0.09501427  0.19822271     0.27300
C3392       C  0.65289332  0.09076583  0.18415897    -0.13200
C3393       C  0.67229040  0.09425479  0.18725912     0.05400
C3394       C  0.67847864  0.10270035  0.20460236    -0.09100
C3395       C  0.66458109  0.10664650  0.21880176     0.06200
C3396       C  0.64537529  0.10249731  0.21560820    -0.13500
Br3397     Br  0.62679339  0.05295447  0.20419757    -0.05600
Br3398     Br  0.57296383  0.12649707  0.17909248     0.00100
Br3399     Br  0.68944282  0.08724389  0.16701735     0.00500
Br3400     Br  0.62658972  0.10710526  0.23506792    -0.03900
Br3401     Br  0.58052491  0.04678670  0.19872509     0.00600
Br3402     Br  0.61874091  0.13242911  0.18704675    -0.03200
Br3403     Br  0.64427889  0.08028402  0.16037922    -0.04100
Br3404     Br  0.67056897  0.11792512  0.24307005    -0.00100
C3405       C  0.54936438  0.15626605  0.04067660     0.01300
C3406       C  0.55184799  0.16736002  0.05714005     0.04200
C3407       C  0.54856276  0.15936352  0.07508938    -0.11900
C3408       C  0.54251196  0.14047039  0.07662817     0.23500
C3409       C  0.53996632  0.12941145  0.06031377    -0.12500
C3410       C  0.54390557  0.13707094  0.04242226     0.04900
C3411       C  0.53998165  0.13168692  0.09542656     0.27300
C3412       C  0.55492407  0.12119655  0.10334823    -0.13200
C3413       C  0.55208643  0.11118518  0.12026580     0.05400
C3414       C  0.53438448  0.11199539  0.12949063    -0.09100
C3415       C  0.51983507  0.12357825  0.12221840     0.06200
C3416       C  0.52251526  0.13307492  0.10494264    -0.13500
Br3417     Br  0.53115121  0.10362893  0.06261111    -0.05600
Br3418     Br  0.55939505  0.19355039  0.05543151     0.00100
Br3419     Br  0.57271782  0.09692682  0.13110517     0.00500
Br3420     Br  0.50210663  0.14741256  0.09387842    -0.03900
Br3421     Br  0.54345349  0.12048822  0.02065286     0.00600
Br3422     Br  0.55243243  0.17410600  0.09772837    -0.03200
Br3423     Br  0.57918893  0.12040501  0.09075026    -0.04100
Br3424     Br  0.49601529  0.12606452  0.13546216    -0.00100
C3425       C  0.32942162  0.95214710  0.82484572     0.01300
C3426       C  0.33495063  0.97127633  0.82394398     0.04200
C3427       C  0.35414001  0.97611425  0.82594553    -0.11900
C3428       C  0.36758630  0.96190012  0.82971021     0.23500
C3429       C  0.36206540  0.94276213  0.83028746    -0.12500
C3430       C  0.34306915  0.93785084  0.82732711     0.04900
C3431       C  0.38727990  0.96699770  0.83447497     0.27300
C3432       C  0.40175423  0.96506951  0.82090446    -0.13200
C3433       C  0.42072187  0.96808328  0.82609567     0.05400
C3434       C  0.42522774  0.97268184  0.84502086    -0.09100
C3435       C  0.41058366  0.97488243  0.85850965     0.06200
C3436       C  0.39164909  0.97235768  0.85312736    -0.13500
Br3437     Br  0.38039166  0.92336936  0.83613904    -0.05600
Br3438     Br  0.31627476  0.99076950  0.81983739     0.00100
Br3439     Br  0.44029995  0.96644148  0.80704843     0.00500
Br3440     Br  0.37159627  0.97572409  0.87145825    -0.03900
Br3441     Br  0.33566072  0.91155655  0.82748189     0.00600
Br3442     Br  0.36207350  0.00214790  0.82392463    -0.03200
Br3443     Br  0.39544636  0.95801842  0.79529946    -0.04100
Br3444     Br  0.41624985  0.97981381  0.88481039    -0.00100
C3445       C  0.62464157  0.99184875  0.92135350     0.01300
C3446       C  0.61863484  0.00560125  0.90803663     0.04200
C3447       C  0.60117765  0.00353760  0.89883246    -0.11900
C3448       C  0.58935290  0.98820992  0.90333760     0.23500
C3449       C  0.59510873  0.97459854  0.91665017    -0.12500
C3450       C  0.61267117  0.97639773  0.92574536     0.04900
C3451       C  0.57006809  0.98732127  0.89541706     0.27300
C3452       C  0.55498933  0.99517962  0.90566348    -0.13200
C3453       C  0.53645063  0.99412281  0.89857509     0.05400
C3454       C  0.53272890  0.98437358  0.88131525    -0.09100
C3455       C  0.54828423  0.97668503  0.87102896     0.06200
C3456       C  0.56684338  0.97852526  0.87795736    -0.13500
Br3457     Br  0.57852533  0.95371454  0.92266802    -0.05600
Br3458     Br  0.63296350  0.02855351  0.90374167     0.00100
Br3459     Br  0.51683395  0.00612517  0.91338865     0.00500
Br3460     Br  0.58816880  0.96922481  0.86351643    -0.03900
Br3461     Br  0.61982659  0.95762706  0.94429614     0.00600
Br3462     Br  0.59304575  0.02200490  0.88039053    -0.03200
Br3463     Br  0.56003845  0.00731213  0.92970980    -0.04100
Br3464     Br  0.54512225  0.96395885  0.84709971    -0.00100
C3465       C  0.29740172  0.19144414  0.09470893     0.01300
C3466       C  0.29988695  0.18522854  0.07591104     0.04200
C3467       C  0.30220965  0.16587687  0.07219053    -0.11900
C3468       C  0.30260376  0.15294893  0.08732197     0.23500
C3469       C  0.29893375  0.15902767  0.10593188    -0.12500
C3470       C  0.29589528  0.17826607  0.10958094     0.04900
C3471       C  0.30903395  0.13341991  0.08414954     0.27300
C3472       C  0.29584056  0.11858296  0.08296342    -0.13200
C3473       C  0.30222953  0.09981501  0.08188827     0.05400
C3474       C  0.32183035  0.09597570  0.08221498    -0.09100
C3475       C  0.33501452  0.11092896  0.08287454     0.06200
C3476       C  0.32859467  0.12965237  0.08375602    -0.13500
Br3477     Br  0.29955052  0.14114024  0.12657907    -0.05600
Br3478     Br  0.30021392  0.20320087  0.05531445     0.00100
Br3479     Br  0.28411443  0.07954456  0.07919495     0.00500
Br3480     Br  0.34658391  0.15021405  0.08493635    -0.03900
Br3481     Br  0.29099743  0.18657253  0.13514454     0.00600
Br3482     Br  0.30579718  0.15705818  0.04659490    -0.03200
Br3483     Br  0.26909518  0.12411371  0.08307787    -0.04100
Br3484     Br  0.36188587  0.10588247  0.08355679    -0.00100
C3485       C  0.29488945  0.03314959  0.04612585     0.01300
C3486       C  0.28285490  0.01740517  0.04875760     0.04200
C3487       C  0.26559778  0.01630956  0.03894022    -0.11900
C3488       C  0.26044449  0.03078153  0.02624894     0.23500
C3489       C  0.27284954  0.04603500  0.02289692    -0.12500
C3490       C  0.28988879  0.04740810  0.03301241     0.04900
C3491       C  0.24146764  0.03076544  0.01736694     0.27300
C3492       C  0.23749434  0.01867913  0.00207258    -0.13200
C3493       C  0.21953285  0.01905835  0.99354720     0.05400
C3494       C  0.20616993  0.03301132  0.99887610    -0.09100
C3495       C  0.21042425  0.04539068  0.01405610     0.06200
C3496       C  0.22760924  0.04354069  0.02384082    -0.13500
Br3497     Br  0.26606457  0.06546706  0.00487260    -0.05600
Br3498     Br  0.28997608  0.99716506  0.06568072     0.00100
Br3499     Br  0.21327687  0.99990669  0.97508918     0.00500
Br3500     Br  0.23256408  0.05907513  0.04580129    -0.03900
Br3501     Br  0.30525968  0.06985274  0.03002234     0.00600
Br3502     Br  0.24869249  0.99529186  0.04333298    -0.03200
Br3503     Br  0.25705258  0.00238633  0.99211678    -0.04100
Br3504     Br  0.19409030  0.06640532  0.02046654    -0.00100
C3505       C  0.47173301  0.07341992  0.15752399     0.01300
C3506       C  0.46855352  0.07566689  0.13796811     0.04200
C3507       C  0.45010002  0.07469702  0.13081660    -0.11900
C3508       C  0.43520738  0.06838069  0.14250579     0.23500
C3509       C  0.43841831  0.06554358  0.16200721    -0.12500
C3510       C  0.45646509  0.06912805  0.16967153     0.04900
C3511       C  0.41709980  0.06266797  0.13357484     0.27300
C3512       C  0.40054123  0.07357936  0.13588581    -0.13200
C3513       C  0.38394455  0.06862235  0.12605287     0.05400
C3514       C  0.38437858  0.05380141  0.11270051    -0.09100
C3515       C  0.40091915  0.04290234  0.11044097     0.06200
C3516       C  0.41695115  0.04682523  0.12143556    -0.13500
Br3517     Br  0.41854141  0.05565776  0.17795087    -0.05600
Br3518     Br  0.48944040  0.07880072  0.12058436     0.00100
Br3519     Br  0.36086624  0.08256865  0.13039427     0.00500
Br3520     Br  0.43894985  0.03065280  0.11957360    -0.03900
Br3521     Br  0.46046369  0.06705620  0.19656626     0.00600
Br3522     Br  0.44522938  0.08166995  0.10484031    -0.03200
Br3523     Br  0.40089400  0.09592506  0.15155021    -0.04100
Br3524     Br  0.40179728  0.02260247  0.09219422    -0.00100
C3525       C  0.45259897  0.85281365  0.09704215     0.01300
C3526       C  0.43862122  0.84053456  0.10488905     0.04200
C3527       C  0.43627009  0.83922605  0.12465492    -0.11900
C3528       C  0.44849103  0.84902526  0.13685049     0.23500
C3529       C  0.46337325  0.85984204  0.12942940    -0.12500
C3530       C  0.46539130  0.86206581  0.10973110     0.04900
C3531       C  0.44570805  0.84807448  0.15762244     0.27300
C3532       C  0.43670365  0.86310293  0.16715694    -0.13200
C3533       C  0.43443218  0.86243937  0.18691615     0.05400
C3534       C  0.44007876  0.84618948  0.19701723    -0.09100
C3535       C  0.44900901  0.83110410  0.18742074     0.06200
C3536       C  0.45239912  0.83236731  0.16786136    -0.13500
Br3537     Br  0.48086701  0.87188879  0.14671885    -0.05600
Br3538     Br  0.42284275  0.82447583  0.08932979     0.00100
Br3539     Br  0.42275730  0.88345243  0.19991061     0.00500
Br3540     Br  0.46634822  0.81270874  0.15501292    -0.03900
Br3541     Br  0.48584894  0.87834949  0.10136971     0.00600
Br3542     Br  0.41589720  0.82433486  0.13529398    -0.03200
Br3543     Br  0.42698110  0.88431933  0.15298357    -0.04100
Br3544     Br  0.45661698  0.80862116  0.20094498    -0.00100
C3545       C  0.45072140  0.88701779  0.98807366     0.01300
C3546       C  0.43571780  0.89884615  0.98228643     0.04200
C3547       C  0.43742772  0.90958228  0.96554723    -0.11900
C3548       C  0.45411807  0.90853614  0.95461823     0.23500
C3549       C  0.46853085  0.89577017  0.95976494    -0.12500
C3550       C  0.46675636  0.88492185  0.97636161     0.04900
C3551       C  0.45718420  0.92177908  0.93853728     0.27300
C3552       C  0.45155698  0.91683077  0.92012064    -0.13200
C3553       C  0.45510707  0.92921838  0.90486458     0.05400
C3554       C  0.46497362  0.94644392  0.90783166    -0.09100
C3555       C  0.47023268  0.95143880  0.92648118     0.06200
C3556       C  0.46626818  0.93920185  0.94172540    -0.13500
Br3557     Br  0.49114279  0.89390883  0.94454309    -0.05600
Br3558     Br  0.41345848  0.90147012  0.99794603     0.00100
Br3559     Br  0.44542215  0.92278542  0.88014558     0.00500
Br3560     Br  0.47379766  0.94595646  0.96711544    -0.03900
Br3561     Br  0.48631626  0.86712109  0.98316231     0.00600
Br3562     Br  0.41741168  0.92652775  0.95803381    -0.03200
Br3563     Br  0.43937040  0.89277461  0.91589743    -0.04100
Br3564     Br  0.48381872  0.97444723  0.93145280    -0.00100
C3565       C  0.35983602  0.98957587  0.07616573     0.01300
C3566       C  0.36903662  0.98195118  0.09218293     0.04200
C3567       C  0.38108903  0.96625520  0.09010338    -0.11900
C3568       C  0.38305911  0.95751480  0.07231120     0.23500
C3569       C  0.37249871  0.96405537  0.05674118    -0.12500
C3570       C  0.36117079  0.98025704  0.05855791     0.04900
C3571       C  0.39683833  0.94200539  0.06948569     0.27300
C3572       C  0.41412510  0.94578382  0.06029293    -0.13200
C3573       C  0.42586975  0.93079737  0.05452335     0.05400
C3574       C  0.42084670  0.91192638  0.05893834    -0.09100
C3575       C  0.40420952  0.90838787  0.06966141     0.06200
C3576       C  0.39208254  0.92338242  0.07455755    -0.13500
Br3577     Br  0.37420666  0.95117014  0.03269178    -0.05600
Br3578     Br  0.36640612  0.99366491  0.11674871     0.00100
Br3579     Br  0.44785083  0.93642320  0.03921472     0.00500
Br3580     Br  0.36871809  0.91849588  0.08796104    -0.03900
Br3581     Br  0.34762180  0.98974065  0.03678826     0.00600
Br3582     Br  0.39593097  0.95751489  0.11126075    -0.03200
Br3583     Br  0.42145711  0.97166208  0.05541545    -0.04100
Br3584     Br  0.39800189  0.88319880  0.07838876    -0.00100
C3585       C  0.69883349  0.20202716  0.58699264     0.01300
C3586       C  0.69670260  0.19499839  0.56846712     0.04200
C3587       C  0.69315881  0.17565417  0.56562256    -0.11900
C3588       C  0.69245716  0.16330944  0.58124897     0.23500
C3589       C  0.69532570  0.17020129  0.59968243    -0.12500
C3590       C  0.69843736  0.18956164  0.60259428     0.04900
C3591       C  0.68810814  0.14310935  0.57852338     0.27300
C3592       C  0.66915805  0.13703069  0.57905529    -0.13200
C3593       C  0.66497426  0.11769201  0.57772361     0.05400
C3594       C  0.67975692  0.10444678  0.57554855    -0.09100
C3595       C  0.69873557  0.11054174  0.57504275     0.06200
C3596       C  0.70290625  0.12990696  0.57661643    -0.13500
Br3597     Br  0.69424511  0.15309338  0.62097897    -0.05600
Br3598     Br  0.69955776  0.21168868  0.54701874     0.00100
Br3599     Br  0.63903432  0.10934554  0.58010972     0.00500
Br3600     Br  0.72883485  0.13846254  0.57653342    -0.03900
Br3601     Br  0.70110916  0.19896492  0.62811819     0.00600
Br3602     Br  0.68861681  0.16608595  0.54048411    -0.03200
Br3603     Br  0.64901210  0.15525556  0.58209107    -0.04100
Br3604     Br  0.71894831  0.09247828  0.57174449    -0.00100
C3605       C  0.70991032  0.03974706  0.53865436     0.01300
C3606       C  0.71462861  0.05313370  0.52453994     0.04200
C3607       C  0.73142136  0.05106667  0.51405524    -0.11900
C3608       C  0.74414345  0.03633480  0.51836036     0.23500
C3609       C  0.73937643  0.02282481  0.53223117    -0.12500
C3610       C  0.72208446  0.02425714  0.54203557     0.04900
C3611       C  0.76308167  0.03607320  0.50926025     0.27300
C3612       C  0.76720393  0.02316818  0.49467042    -0.13200
C3613       C  0.78499006  0.02360889  0.48565669     0.05400
C3614       C  0.79811415  0.03811358  0.48996812    -0.09100
C3615       C  0.79367372  0.05128545  0.50445069     0.06200
C3616       C  0.77667840  0.04956313  0.51467653    -0.13500
Br3617     Br  0.75690457  0.00280326  0.53833183    -0.05600
Br3618     Br  0.69927677  0.07543449  0.52064286     0.00100
Br3619     Br  0.79136363  0.00378579  0.46798977     0.00500
Br3620     Br  0.77169762  0.06600293  0.53598975    -0.03900
Br3621     Br  0.71500388  0.00470142  0.55979617     0.00600
Br3622     Br  0.73740774  0.06882563  0.49411403    -0.03200
Br3623     Br  0.74814872  0.00538513  0.48654821    -0.04100
Br3624     Br  0.80945967  0.07311101  0.50926576    -0.00100
C3625       C  0.43003912  0.08403214  0.68916859     0.01300
C3626       C  0.41625156  0.08211167  0.67487680     0.04200
C3627       C  0.39703851  0.08427709  0.67939483    -0.11900
C3628       C  0.39163792  0.08853268  0.69808179     0.23500
C3629       C  0.40530625  0.08993617  0.71245832    -0.12500
C3630       C  0.42451090  0.08741257  0.70806792     0.04900
C3631       C  0.37175939  0.09325204  0.70217533     0.27300
C3632       C  0.36608448  0.11230385  0.70166020    -0.13200
C3633       C  0.34710075  0.11701202  0.70490499     0.05400
C3634       C  0.33364919  0.10257438  0.70805012    -0.09100
C3635       C  0.33934762  0.08348884  0.70857939     0.06200
C3636       C  0.35849875  0.07884519  0.70585278    -0.13500
Br3637     Br  0.39769407  0.09618459  0.73794951    -0.05600
Br3638     Br  0.42353780  0.07791379  0.64884272     0.00100
Br3639     Br  0.33961712  0.14328648  0.70431870     0.00500
Br3640     Br  0.36669078  0.05284948  0.70699200    -0.03900
Br3641     Br  0.44310746  0.08807074  0.72808261     0.00600
Br3642     Br  0.37807195  0.08246520  0.65984368    -0.03200
Br3643     Br  0.38434012  0.13187377  0.69591609    -0.04100
Br3644     Br  0.32107557  0.06382947  0.71360255    -0.00100
C3645       C  0.49321127  0.05344091  0.72423779     0.01300
C3646       C  0.50622968  0.05968528  0.73811142     0.04200
C3647       C  0.50628187  0.05142200  0.75626156    -0.11900
C3648       C  0.49411106  0.03620062  0.76037753     0.23500
C3649       C  0.48224587  0.02891596  0.74617015    -0.12500
C3650       C  0.48136656  0.03775343  0.72833480     0.04900
C3651       C  0.49343223  0.02787139  0.77969294     0.27300
C3652       C  0.50622449  0.01355422  0.78478754    -0.13200
C3653       C  0.50430206  0.00417315  0.80227314     0.05400
C3654       C  0.48961686  0.00921191  0.81505014    -0.09100
C3655       C  0.47717110  0.02416078  0.81004350     0.06200
C3656       C  0.47909672  0.03334929  0.79242056    -0.13500
Br3657     Br  0.46704218  0.00678602  0.75140587    -0.05600
Br3658     Br  0.52476188  0.07890417  0.73217282     0.00100
Br3659     Br  0.52215372  0.98450616  0.80827753     0.00500
Br3660     Br  0.46161243  0.05306973  0.78517151    -0.03900
Br3661     Br  0.46277912  0.02886654  0.71038172     0.00600
Br3662     Br  0.52284383  0.06105348  0.77567106    -0.03200
Br3663     Br  0.52612378  0.00650821  0.76736510    -0.04100
Br3664     Br  0.45635825  0.03138352  0.82630142    -0.00100
C3665       C  0.53968007  0.08106817  0.66129853     0.01300
C3666       C  0.55055564  0.06482910  0.66516597     0.04200
C3667       C  0.56744465  0.06164730  0.65518873    -0.11900
C3668       C  0.57333037  0.07469258  0.64133280     0.23500
C3669       C  0.56328325  0.09166660  0.63859156    -0.12500
C3670       C  0.54664309  0.09506896  0.64892289     0.04900
C3671       C  0.58963665  0.07023082  0.62908862     0.27300
C3672       C  0.60788381  0.07602779  0.63435787    -0.13200
C3673       C  0.62332034  0.07235918  0.62236964     0.05400
C3674       C  0.62056040  0.06226823  0.60529359    -0.09100
C3675       C  0.60217629  0.05616903  0.60024675     0.06200
C3676       C  0.58673811  0.06037023  0.61205638    -0.13500
Br3677     Br  0.57169025  0.10958590  0.61976148    -0.05600
Br3678     Br  0.54229845  0.04710951  0.68426254     0.00100
Br3679     Br  0.64789642  0.08225717  0.62912000     0.00500
Br3680     Br  0.56150089  0.05254905  0.60504992    -0.03900
Br3681     Br  0.53298912  0.11844570  0.64537804     0.00600
Br3682     Br  0.58208535  0.03906767  0.65975455    -0.03200
Br3683     Br  0.61154603  0.08894971  0.65813192    -0.04100
Br3684     Br  0.59793690  0.04117665  0.57775997    -0.00100
C3685       C  0.32865314  0.94376464  0.45220043     0.01300
C3686       C  0.31004607  0.93963174  0.44610630     0.04200
C3687       C  0.30431048  0.92072346  0.44381121    -0.11900
C3688       C  0.31701145  0.90593321  0.44779626     0.23500
C3689       C  0.33496432  0.90992849  0.45534806    -0.12500
C3690       C  0.34071860  0.92875672  0.45788072     0.04900
C3691       C  0.31221219  0.88621948  0.44276929     0.27300
C3692       C  0.30678835  0.87321901  0.45687970    -0.13200
C3693       C  0.30491389  0.85394044  0.45236027     0.05400
C3694       C  0.30778193  0.84780462  0.43357262    -0.09100
C3695       C  0.31181499  0.86110165  0.41921831     0.06200
C3696       C  0.31461376  0.88017697  0.42393715    -0.13500
Br3697     Br  0.35197749  0.88943689  0.46160183    -0.05600
Br3698     Br  0.29179322  0.95964027  0.44233597     0.00100
Br3699     Br  0.29813238  0.83601669  0.47184889     0.00500
Br3700     Br  0.32309170  0.89787054  0.40486745    -0.03900
Br3701     Br  0.36530927  0.93330356  0.46903007     0.00600
Br3702     Br  0.27913673  0.91491258  0.43501121    -0.03200
Br3703     Br  0.30265704  0.88183636  0.48246782    -0.04100
Br3704     Br  0.31447950  0.85324587  0.39317359    -0.00100
C3705       C  0.20899910  0.01082133  0.53253034     0.01300
C3706       C  0.21240112  0.99784427  0.51761904     0.04200
C3707       C  0.22968155  0.99830544  0.50762780    -0.11900
C3708       C  0.24393753  0.01120533  0.51280916     0.23500
C3709       C  0.24062278  0.02418189  0.52753918    -0.12500
C3710       C  0.22311214  0.02427427  0.53712119     0.04900
C3711       C  0.26275979  0.01041320  0.50335375     0.27300
C3712       C  0.27656901  0.99771648  0.50995185    -0.13200
C3713       C  0.29397889  0.99588013  0.50037821     0.05400
C3714       C  0.29814211  0.00748625  0.48448018    -0.09100
C3715       C  0.28427631  0.02064166  0.47824412     0.06200
C3716       C  0.26659967  0.02181892  0.48749691    -0.13500
Br3717     Br  0.26049832  0.04131304  0.53504168    -0.05600
Br3718     Br  0.19437004  0.97816079  0.51172805     0.00100
Br3719     Br  0.31103841  0.97608029  0.50848256     0.00500
Br3720     Br  0.24728962  0.03883294  0.47833982    -0.03900
Br3721     Br  0.21852062  0.04324859  0.55624643     0.00600
Br3722     Br  0.23429618  0.98074983  0.48719378    -0.03200
Br3723     Br  0.27128851  0.98253223  0.53208743    -0.04100
Br3724     Br  0.28916557  0.03761824  0.45735785    -0.00100
C3725       C  0.45507792  0.18652236  0.42984307     0.01300
C3726       C  0.47093778  0.18470937  0.41759178     0.04200
C3727       C  0.46865433  0.18664642  0.39791092    -0.11900
C3728       C  0.45092527  0.19153045  0.39043769     0.23500
C3729       C  0.43515179  0.19347010  0.40243294    -0.12500
C3730       C  0.43703315  0.19046578  0.42198310     0.04900
C3731       C  0.44881664  0.19559174  0.37004130     0.27300
C3732       C  0.45253878  0.21394800  0.36329052    -0.13200
C3733       C  0.44764606  0.21881591  0.34468516     0.05400
C3734       C  0.43831264  0.20558948  0.33308946    -0.09100
C3735       C  0.43581495  0.18680244  0.33941598     0.06200
C3736       C  0.44137973  0.18175404  0.35782479    -0.13500
Br3737     Br  0.41083340  0.20021552  0.39186677    -0.05600
Br3738     Br  0.49614139  0.18052864  0.42730984     0.00100
Br3739     Br  0.45400636  0.24348496  0.33498327     0.00500
Br3740     Br  0.43805456  0.15616986  0.36674226    -0.03900
Br3741     Br  0.41429244  0.19045611  0.43729943     0.00600
Br3742     Br  0.48965839  0.18237715  0.38091465    -0.03200
Br3743     Br  0.46333476  0.23268499  0.37993988    -0.04100
Br3744     Br  0.42331131  0.16834296  0.32365451    -0.00100
C3745       C  0.45601231  0.15638992  0.53954342     0.01300
C3746       C  0.46037950  0.16817961  0.55501772     0.04200
C3747       C  0.46302165  0.16025685  0.57314676    -0.11900
C3748       C  0.45974573  0.14078727  0.57615957     0.23500
C3749       C  0.45315641  0.12950838  0.56110674    -0.12500
C3750       C  0.45201651  0.13707069  0.54273075     0.04900
C3751       C  0.46481901  0.13163871  0.59446955     0.27300
C3752       C  0.48103726  0.12003089  0.59538257    -0.13200
C3753       C  0.48494889  0.10956285  0.61185609     0.05400
C3754       C  0.47368667  0.11196440  0.62818133    -0.09100
C3755       C  0.45808729  0.12447493  0.62764741     0.06200
C3756       C  0.45321685  0.13366683  0.61060589    -0.13500
Br3757     Br  0.44610977  0.10350598  0.56569802    -0.05600
Br3758     Br  0.46341853  0.19502063  0.55131055     0.00100
Br3759     Br  0.50578057  0.09191335  0.61188685     0.00500
Br3760     Br  0.43024621  0.14835315  0.60908737    -0.03900
Br3761     Br  0.44509554  0.12076405  0.52195342     0.00600
Br3762     Br  0.47227177  0.17582485  0.59352182    -0.03200
Br3763     Br  0.49805567  0.11865749  0.57399798    -0.04100
Br3764     Br  0.44292363  0.12854519  0.65002920    -0.00100
C3765       C  0.41773909  0.13570400  0.47294095     0.01300
C3766       C  0.41835440  0.12670164  0.45514059     0.04200
C3767       C  0.40618326  0.11146661  0.45139101    -0.11900
C3768       C  0.39381421  0.10496385  0.46560684     0.23500
C3769       C  0.39227543  0.11477624  0.48287213    -0.12500
C3770       C  0.40382709  0.13054717  0.48630974     0.04900
C3771       C  0.38452778  0.08639731  0.46349422     0.27300
C3772       C  0.36698581  0.08472931  0.45433603    -0.13200
C3773       C  0.35830624  0.06688102  0.45256595     0.05400
C3774       C  0.36733455  0.05053190  0.45991675    -0.09100
C3775       C  0.38519117  0.05248499  0.46909866     0.06200
C3776       C  0.39356800  0.07036384  0.47089939    -0.13500
Br3777     Br  0.37550093  0.10554106  0.50238403    -0.05600
Br3778     Br  0.43560076  0.13541359  0.43577004     0.00100
Br3779     Br  0.33366863  0.06553200  0.44088496     0.00500
Br3780     Br  0.41767848  0.07310449  0.48365777    -0.03900
Br3781     Br  0.40106272  0.14441849  0.50967798     0.00600
Br3782     Br  0.40703266  0.09883765  0.42719183    -0.03200
Br3783     Br  0.35489339  0.10713380  0.44448221    -0.04100
Br3784     Br  0.39936625  0.03105550  0.47879957    -0.00100
C3785       C  0.58081390  0.94863895  0.32812846     0.01300
C3786       C  0.59129563  0.93451269  0.33749469     0.04200
C3787       C  0.61068225  0.93228406  0.33360488    -0.11900
C3788       C  0.61933082  0.94316479  0.31927753     0.23500
C3789       C  0.60854675  0.95644878  0.30903487    -0.12500
C3790       C  0.58952661  0.95974436  0.31400419     0.04900
C3791       C  0.63993960  0.94120532  0.31566213     0.27300
C3792       C  0.65252706  0.95511795  0.32232308    -0.13200
C3793       C  0.67209818  0.95308056  0.31943558     0.05400
C3794       C  0.67941020  0.93624337  0.31145613    -0.09100
C3795       C  0.66667502  0.92248946  0.30429712     0.06200
C3796       C  0.64699916  0.92521194  0.30611017    -0.13500
Br3797     Br  0.61997749  0.97024128  0.28837886    -0.05600
Br3798     Br  0.57931416  0.91872203  0.35628662     0.00100
Br3799     Br  0.68855875  0.97416881  0.32514605     0.00500
Br3800     Br  0.62953430  0.90677099  0.29602311    -0.03900
Br3801     Br  0.57569440  0.97986027  0.30189013     0.00600
Br3802     Br  0.62565810  0.91508881  0.34863894    -0.03200
Br3803     Br  0.64301102  0.97659045  0.33629428    -0.04100
Br3804     Br  0.67564923  0.89942023  0.29267928    -0.00100
C3805       C  0.51613541  0.98891192  0.30200036     0.01300
C3806       C  0.52373777  0.98280404  0.28457349     0.04200
C3807       C  0.52368516  0.99509006  0.26903526    -0.11900
C3808       C  0.51456427  0.01273258  0.27039391     0.23500
C3809       C  0.50563829  0.01823644  0.28733625    -0.12500
C3810       C  0.50674843  0.00647818  0.30329220     0.04900
C3811       C  0.51488427  0.02554576  0.25398808     0.27300
C3812       C  0.52813137  0.04039772  0.25334499    -0.13200
C3813       C  0.52969677  0.05150929  0.23697845     0.05400
C3814       C  0.51833049  0.04743269  0.22110413    -0.09100
C3815       C  0.50529468  0.03236059  0.22168472     0.06200
C3816       C  0.50322501  0.02173882  0.23832604    -0.13500
Br3817     Br  0.49249657  0.04212554  0.28877838    -0.05600
Br3818     Br  0.53494026  0.95800108  0.28188614     0.00100
Br3819     Br  0.54845141  0.07137227  0.23590344     0.00500
Br3820     Br  0.48468874  0.00170474  0.23970209    -0.03900
Br3821     Br  0.49509451  0.01429280  0.32678589     0.00600
Br3822     Br  0.53729650  0.98836669  0.24626240    -0.03200
Br3823     Br  0.54467443  0.04493090  0.27461143    -0.04100
Br3824     Br  0.49047934  0.02598313  0.19970736    -0.00100
C3825       C  0.39353201  0.98615593  0.42489361     0.01300
C3826       C  0.39767803  0.96762885  0.41880009     0.04200
C3827       C  0.41419938  0.96398840  0.40822565    -0.11900
C3828       C  0.42603305  0.97903745  0.40266311     0.23500
C3829       C  0.42128300  0.99771720  0.40769703    -0.12500
C3830       C  0.40522799  0.00124770  0.41900647     0.04900
C3831       C  0.44393551  0.97518043  0.39229798     0.27300
C3832       C  0.46091574  0.97326734  0.40250638    -0.13200
C3833       C  0.47804674  0.97001521  0.39289603     0.05400
C3834       C  0.47824629  0.96834741  0.37297527    -0.09100
C3835       C  0.46121407  0.97006208  0.36275017     0.06200
C3836       C  0.44410653  0.97367776  0.37239749    -0.13500
Br3837     Br  0.43682954  0.01840523  0.39892087    -0.05600
Br3838     Br  0.38011721  0.94744551  0.42377209     0.00100
Br3839     Br  0.50115025  0.96736369  0.40724506     0.00500
Br3840     Br  0.42096752  0.97713623  0.35840789    -0.03900
Br3841     Br  0.39917043  0.02682830  0.42613690     0.00600
Br3842     Br  0.42084898  0.93838058  0.40153066    -0.03200
Br3843     Br  0.46060863  0.97519562  0.42975923    -0.04100
Br3844     Br  0.46147661  0.96842073  0.33549259    -0.00100
C3845       C  0.58192781  0.82925051  0.68694487     0.01300
C3846       C  0.59511119  0.82975196  0.67197140     0.04200
C3847       C  0.58881004  0.83274478  0.65343605    -0.11900
C3848       C  0.56943432  0.83567921  0.64997078     0.23500
C3849       C  0.55614890  0.83436377  0.66476196    -0.12500
C3850       C  0.56239199  0.83096718  0.68329670     0.04900
C3851       C  0.56346129  0.84195301  0.63107592     0.27300
C3852       C  0.56411357  0.86137455  0.62671073    -0.13200
C3853       C  0.56028507  0.86744550  0.60825638     0.05400
C3854       C  0.55636199  0.85401675  0.59410485    -0.09100
C3855       C  0.55517018  0.83464410  0.59855393     0.06200
C3856       C  0.55864002  0.82860098  0.61714186    -0.13500
Br3857     Br  0.52955719  0.83769682  0.65956564    -0.05600
Br3858     Br  0.62191589  0.82778160  0.67691290     0.00100
Br3859     Br  0.56152218  0.89406550  0.60217553     0.00500
Br3860     Br  0.55767116  0.80207954  0.62343904    -0.03900
Br3861     Br  0.54421596  0.82826548  0.70355991     0.00600
Br3862     Br  0.60671864  0.83355696  0.63276907    -0.03200
Br3863     Br  0.57148326  0.87950631  0.64576212    -0.04100
Br3864     Br  0.54872987  0.81650808  0.57920794    -0.00100
C3865       C  0.54125411  0.92976378  0.39495736     0.01300
C3866       C  0.52847885  0.91568548  0.40137958     0.04200
C3867       C  0.53157366  0.90678354  0.41884046    -0.11900
C3868       C  0.54658446  0.91275409  0.43039446     0.23500
C3869       C  0.55932839  0.92665520  0.42409066    -0.12500
C3870       C  0.55711261  0.93466836  0.40611470     0.04900
C3871       C  0.54812840  0.90557707  0.44985455     0.27300
C3872       C  0.53703564  0.91380022  0.46409141    -0.13200
C3873       C  0.53904917  0.90791949  0.48293882     0.05400
C3874       C  0.55187202  0.89300681  0.48759250    -0.09100
C3875       C  0.56334948  0.88513069  0.47291822     0.06200
C3876       C  0.56134016  0.89146492  0.45418097    -0.13500
Br3877     Br  0.57919674  0.93545991  0.44064213    -0.05600
Br3878     Br  0.50558017  0.90971502  0.38764251     0.00100
Br3879     Br  0.52464370  0.92179597  0.50173175     0.00500
Br3880     Br  0.57670527  0.88094619  0.43406606    -0.03900
Br3881     Br  0.57619168  0.95207443  0.39699595     0.00600
Br3882     Br  0.51472691  0.88706355  0.42755501    -0.03200
Br3883     Br  0.51910593  0.93347595  0.45748362    -0.04100
Br3884     Br  0.58225842  0.86579146  0.47736381    -0.00100
C3885       C  0.58492199  0.91763109  0.55776587     0.01300
C3886       C  0.57898958  0.93642386  0.55401428     0.04200
C3887       C  0.59094056  0.95172526  0.55839694    -0.11900
C3888       C  0.60879622  0.94846088  0.56651722     0.23500
C3889       C  0.61426052  0.93003187  0.57149040    -0.12500
C3890       C  0.60244012  0.91461518  0.56713184     0.04900
C3891       C  0.62220580  0.96440186  0.56870258     0.27300
C3892       C  0.63393728  0.96954019  0.55338660    -0.13200
C3893       C  0.64515743  0.98590363  0.55449254     0.05400
C3894       C  0.64451803  0.99725636  0.57084350    -0.09100
C3895       C  0.63338215  0.99167283  0.58649799     0.06200
C3896       C  0.62234391  0.97515589  0.58545381    -0.13500
Br3897     Br  0.63808156  0.92612737  0.58427157    -0.05600
Br3898     Br  0.55511964  0.94170870  0.54185146     0.00100
Br3899     Br  0.66130766  0.99292375  0.53355829     0.00500
Br3900     Br  0.60667401  0.96767199  0.60655699    -0.03900
Br3901     Br  0.61039008  0.88957281  0.57472688     0.00600
Br3902     Br  0.58316518  0.97736696  0.55293837    -0.03200
Br3903     Br  0.63392147  0.95457068  0.53056660    -0.04100
Br3904     Br  0.63175673  0.00748037  0.60872024    -0.00100
C3905       C  0.33998635  0.44567473  0.56582895     0.01300
C3906       C  0.35517882  0.43326427  0.56949433     0.04200
C3907       C  0.35157042  0.41410115  0.57328892    -0.11900
C3908       C  0.33281997  0.40737261  0.57333038     0.23500
C3909       C  0.31769698  0.41965840  0.56922147    -0.12500
C3910       C  0.32127573  0.43883567  0.56549915     0.04900
C3911       C  0.32895862  0.38742130  0.57808104     0.27300
C3912       C  0.32727093  0.37394373  0.56357251    -0.13200
C3913       C  0.32344888  0.35499692  0.56811483     0.05400
C3914       C  0.32211119  0.34932720  0.58720580    -0.09100
C3915       C  0.32349140  0.36297154  0.60174028     0.06200
C3916       C  0.32679748  0.38202336  0.59712990    -0.13500
Br3917     Br  0.29211499  0.41012448  0.56882891    -0.05600
Br3918     Br  0.38086185  0.44259480  0.57013791     0.00100
Br3919     Br  0.31862690  0.33722652  0.54810184     0.00500
Br3920     Br  0.32864696  0.40083301  0.61683921    -0.03900
Br3921     Br  0.30063719  0.45563237  0.55941337     0.00600
Br3922     Br  0.37219407  0.39702706  0.57871939    -0.03200
Br3923     Br  0.33041152  0.38151819  0.53750245    -0.04100
Br3924     Br  0.32155572  0.35569388  0.62802460    -0.00100
C3925       C  0.68454362  0.44885307  0.70350880     0.01300
C3926       C  0.67911842  0.46786663  0.70580303     0.04200
C3927       C  0.66017053  0.47315966  0.70288032    -0.11900
C3928       C  0.64663882  0.45932271  0.69815777     0.23500
C3929       C  0.65182985  0.44012839  0.69720433    -0.12500
C3930       C  0.67080848  0.43488617  0.69970902     0.04900
C3931       C  0.62727045  0.46487378  0.69266093     0.27300
C3932       C  0.61287301  0.46633332  0.70637056    -0.13200
C3933       C  0.59409854  0.46974814  0.70072753     0.05400
C3934       C  0.58973025  0.47140873  0.68131035    -0.09100
C3935       C  0.60432898  0.47045800  0.66764801     0.06200
C3936       C  0.62305600  0.46724822  0.67335684    -0.13500
Br3937     Br  0.63287229  0.42113375  0.69202882    -0.05600
Br3938     Br  0.69752364  0.48638773  0.71373779     0.00100
Br3939     Br  0.57459746  0.47280815  0.71965719     0.00500
Br3940     Br  0.64297587  0.46532419  0.65467491    -0.03900
Br3941     Br  0.67797132  0.40865306  0.69711837     0.00600
Br3942     Br  0.65274597  0.49930108  0.70500141    -0.03200
Br3943     Br  0.61893966  0.46310348  0.73277325    -0.04100
Br3944     Br  0.59875439  0.47230319  0.64092884    -0.00100
C3945       C  0.39833956  0.49344667  0.58988509     0.01300
C3946       C  0.39757187  0.48366476  0.60738464     0.04200
C3947       C  0.41419924  0.48094684  0.61801194    -0.11900
C3948       C  0.43160908  0.48793887  0.61127029     0.23500
C3949       C  0.43241730  0.49770428  0.59393027    -0.12500
C3950       C  0.41583310  0.50074795  0.58341586     0.04900
C3951       C  0.44917340  0.48532148  0.62241936     0.27300
C3952       C  0.45639753  0.50044922  0.63319131    -0.13200
C3953       C  0.47403707  0.49870398  0.64220252     0.05400
C3954       C  0.48419662  0.48156549  0.64102627    -0.09100
C3955       C  0.47676820  0.46628855  0.63056215     0.06200
C3956       C  0.45937194  0.46824803  0.62111343    -0.13500
Br3957     Br  0.45646149  0.50680101  0.58456206    -0.05600
Br3958     Br  0.37401942  0.47337555  0.61682823     0.00100
Br3959     Br  0.48437286  0.51994508  0.65589875     0.00500
Br3960     Br  0.44993895  0.44795660  0.60549471    -0.03900
Br3961     Br  0.41715483  0.51619696  0.56088440     0.00600
Br3962     Br  0.41329651  0.46744993  0.64176675    -0.03200
Br3963     Br  0.44230813  0.52377606  0.63505067    -0.04100
Br3964     Br  0.49114050  0.44322018  0.62777268    -0.00100
C3965       C  0.56988809  0.34723846  0.43745525     0.01300
C3966       C  0.56882180  0.36416669  0.42682350     0.04200
C3967       C  0.56965207  0.36363139  0.40696820    -0.11900
C3968       C  0.57139338  0.34621354  0.39753994     0.23500
C3969       C  0.57221107  0.32926572  0.40801406    -0.12500
C3970       C  0.57141143  0.32976529  0.42795370     0.04900
C3971       C  0.57332262  0.34597572  0.37663919     0.27300
C3972       C  0.55720885  0.34440203  0.36499373    -0.13200
C3973       C  0.55915396  0.34508008  0.34515701     0.05400
C3974       C  0.57724754  0.34708172  0.33698534    -0.09100
C3975       C  0.59333972  0.34867810  0.34867394     0.06200
C3976       C  0.59136187  0.34817718  0.36844259    -0.13500
Br3977     Br  0.57438501  0.30544694  0.39488700    -0.05600
Br3978     Br  0.56654563  0.38835283  0.43929378     0.00100
Br3979     Br  0.53721495  0.34239147  0.32916244     0.00500
Br3980     Br  0.61338866  0.35034443  0.38442315    -0.03900
Br3981     Br  0.57125994  0.30650216  0.44207206     0.00600
Br3982     Br  0.56863080  0.38681540  0.39251918    -0.03200
Br3983     Br  0.53260007  0.34088450  0.37628524    -0.04100
Br3984     Br  0.61817865  0.35184000  0.33764953    -0.00100
C3985       C  0.54365800  0.30265539  0.50212457     0.01300
C3986       C  0.52492243  0.30018194  0.50905588     0.04200
C3987       C  0.51671913  0.28203301  0.50960528    -0.11900
C3988       C  0.52676139  0.26633211  0.50270051     0.23500
C3989       C  0.54561377  0.26837260  0.49679709    -0.12500
C3990       C  0.55425942  0.28631051  0.49685778     0.04900
C3991       C  0.51679414  0.24818152  0.49950965     0.27300
C3992       C  0.51711389  0.23369292  0.51321221    -0.13200
C3993       C  0.50711915  0.21674682  0.51000126     0.05400
C3994       C  0.49622846  0.21466569  0.49346624    -0.09100
C3995       C  0.49667274  0.22882119  0.47942334     0.06200
C3996       C  0.50705933  0.24546684  0.48236730    -0.13500
Br3997     Br  0.55918670  0.24641864  0.48771460    -0.05600
Br3998     Br  0.51006969  0.32121993  0.51818877     0.00100
Br3999     Br  0.50824305  0.19648609  0.52816856     0.00500
Br4000     Br  0.50774996  0.26479199  0.46303413    -0.03900
Br4001     Br  0.58041853  0.28764480  0.48880650     0.00600
Br4002     Br  0.49144462  0.27847589  0.51948246    -0.03200
Br4003     Br  0.53072727  0.23741478  0.53651754    -0.04100
Br4004     Br  0.48314063  0.22537559  0.45600022    -0.00100
C4005       C  0.56465013  0.37236487  0.54785805     0.01300
C4006       C  0.54774554  0.37237243  0.55861952     0.04200
C4007       C  0.54549470  0.38494446  0.57390204    -0.11900
C4008       C  0.56012423  0.39758934  0.57862532     0.23500
C4009       C  0.57755064  0.39661932  0.56895506    -0.12500
C4010       C  0.57993198  0.38392128  0.55374841     0.04900
C4011       C  0.55686822  0.41247675  0.59315352     0.27300
C4012       C  0.54717176  0.42922034  0.58826166    -0.13200
C4013       C  0.54379679  0.44328003  0.60199196     0.05400
C4014       C  0.55015285  0.44066397  0.62074577    -0.09100
C4015       C  0.56039974  0.42411095  0.62544149     0.06200
C4016       C  0.56346083  0.40996237  0.61176354    -0.13500
Br4017     Br  0.59773494  0.41368004  0.57584870    -0.05600
Br4018     Br  0.52750591  0.35517527  0.55249649     0.00100
Br4019     Br  0.52961640  0.46559804  0.59514602     0.00500
Br4020     Br  0.57626933  0.38683208  0.61857307    -0.03900
Br4021     Br  0.60375439  0.38378070  0.54029642     0.00600
Br4022     Br  0.52199791  0.38556232  0.58789507    -0.03200
Br4023     Br  0.53804671  0.43259611  0.56275784    -0.04100
Br4024     Br  0.57112139  0.42104444  0.65040300    -0.00100
C4025       C  0.67783750  0.59907216  0.46642732     0.01300
C4026       C  0.66554542  0.61366719  0.46072483     0.04200
C4027       C  0.67297825  0.63140683  0.45575771    -0.11900
C4028       C  0.69262802  0.63463876  0.45686696     0.23500
C4029       C  0.70473661  0.62045574  0.46383101    -0.12500
C4030       C  0.69734682  0.60259429  0.46848522     0.04900
C4031       C  0.70044321  0.65270806  0.44982719     0.27300
C4032       C  0.70465337  0.65473138  0.43043905    -0.13200
C4033       C  0.70926325  0.67262914  0.42306576     0.05400
C4034       C  0.70993467  0.68844421  0.43519856    -0.09100
C4035       C  0.70711003  0.68606158  0.45484827     0.06200
C4036       C  0.70219489  0.66822971  0.46211833    -0.13500
Br4037     Br  0.73140099  0.62548027  0.46663989    -0.05600
Br4038     Br  0.63865940  0.60915552  0.45889662     0.00100
Br4039     Br  0.71321498  0.67559636  0.39619988     0.00500
Br4040     Br  0.69725264  0.66505968  0.48879726    -0.03900
Br4041     Br  0.71382905  0.58296579  0.47787767     0.00600
Br4042     Br  0.65637963  0.65115386  0.44679310    -0.03200
Br4043     Br  0.70335851  0.63299303  0.41396907    -0.04100
Br4044     Br  0.71028348  0.70713008  0.47192952    -0.00100
C4045       C  0.59033679  0.40543340  0.48527988     0.01300
C4046       C  0.60649648  0.40731763  0.47355281     0.04200
C4047       C  0.61568113  0.42487921  0.47203184    -0.11900
C4048       C  0.60851446  0.44068700  0.48175281     0.23500
C4049       C  0.59227690  0.43897268  0.49317586    -0.12500
C4050       C  0.58339471  0.42130946  0.49525680     0.04900
C4051       C  0.61805772  0.45917953  0.47983813     0.27300
C4052       C  0.63207155  0.46456927  0.49292558    -0.13200
C4053       C  0.64104169  0.48222540  0.49109743     0.05400
C4054       C  0.63627442  0.49424507  0.47594498    -0.09100
C4055       C  0.62273078  0.48855693  0.46250880     0.06200
C4056       C  0.61331334  0.47121133  0.46470210    -0.13500
Br4057     Br  0.58232771  0.46092295  0.50601219    -0.05600
Br4058     Br  0.61591261  0.38618171  0.45895875     0.00100
Br4059     Br  0.66023210  0.48976689  0.50896145     0.00500
Br4060     Br  0.59353098  0.46407104  0.44732912    -0.03900
Br4061     Br  0.56267981  0.41878787  0.51297121     0.00600
Br4062     Br  0.63824214  0.42742243  0.45674646    -0.03200
Br4063     Br  0.63884344  0.44772757  0.51331219    -0.04100
Br4064     Br  0.61690764  0.50461084  0.44121807    -0.00100
C4065       C  0.43454816  0.57778992  0.33760901     0.01300
C4066       C  0.42127663  0.57809906  0.35255437     0.04200
C4067       C  0.40194886  0.57980688  0.34854166    -0.11900
C4068       C  0.39592420  0.58160580  0.32967284     0.23500
C4069       C  0.40910308  0.58098491  0.31471581    -0.12500
C4070       C  0.42845185  0.57886410  0.31867987     0.04900
C4071       C  0.37588327  0.58578822  0.32588292     0.27300
C4072       C  0.36310010  0.57108801  0.32183978    -0.13200
C4073       C  0.34375585  0.57516110  0.31964550     0.05400
C4074       C  0.33719535  0.59380405  0.32217083    -0.09100
C4075       C  0.35018615  0.60857325  0.32560596     0.06200
C4076       C  0.36951143  0.60456135  0.32737024    -0.13500
Br4077     Br  0.40063592  0.58366992  0.28893372    -0.05600
Br4078     Br  0.42948721  0.57759374  0.37862671     0.00100
Br4079     Br  0.32663718  0.55556284  0.31177388     0.00500
Br4080     Br  0.38736498  0.62472405  0.33209638    -0.03900
Br4081     Br  0.44653487  0.57695376  0.29824385     0.00600
Br4082     Br  0.38365252  0.58045830  0.36889546    -0.03200
Br4083     Br  0.37220624  0.54546749  0.31950645    -0.04100
Br4084     Br  0.34167899  0.63439685  0.32812462    -0.00100
C4085       C  0.54165715  0.57823288  0.37222243     0.01300
C4086       C  0.54573117  0.59332196  0.38464117     0.04200
C4087       C  0.56080214  0.59170358  0.39747083    -0.11900
C4088       C  0.57171616  0.57507206  0.39780380     0.23500
C4089       C  0.56844058  0.56058020  0.38455453    -0.12500
C4090       C  0.55348435  0.56223137  0.37166821     0.04900
C4091       C  0.58627315  0.57229745  0.41243773     0.27300
C4092       C  0.60501678  0.57775511  0.40876571    -0.13200
C4093       C  0.61945517  0.57248762  0.42130042     0.05400
C4094       C  0.61503514  0.56200301  0.43781309    -0.09100
C4095       C  0.59597912  0.55747366  0.44196303     0.06200
C4096       C  0.58163175  0.56265663  0.42924384    -0.13500
Br4097     Br  0.58377529  0.53798053  0.38488345    -0.05600
Br4098     Br  0.52971578  0.61543747  0.38542098     0.00100
Br4099     Br  0.64515747  0.58004468  0.41565251     0.00500
Br4100     Br  0.55556893  0.55621071  0.43448327    -0.03900
Br4101     Br  0.54880245  0.54238903  0.35350986     0.00600
Br4102     Br  0.56585597  0.61165036  0.41538910    -0.03200
Br4103     Br  0.61073965  0.59233894  0.38636219    -0.04100
Br4104     Br  0.58938617  0.54299271  0.46422855    -0.00100
C4105       C  0.43977484  0.70542665  0.58214625     0.01300
C4106       C  0.44239407  0.72439474  0.58769115     0.04200
C4107       C  0.44025883  0.72946334  0.60683460    -0.11900
C4108       C  0.43520280  0.71561007  0.62025399     0.23500
C4109       C  0.43195336  0.69681907  0.61455552    -0.12500
C4110       C  0.43454181  0.69166937  0.59558393     0.04900
C4111       C  0.43297647  0.72052876  0.64043206     0.27300
C4112       C  0.44817433  0.71788094  0.65301996    -0.13200
C4113       C  0.44528916  0.71983529  0.67261989     0.05400
C4114       C  0.42704460  0.72401831  0.67962724    -0.09100
C4115       C  0.41191307  0.72698158  0.66686557     0.06200
C4116       C  0.41503646  0.72567124  0.64730555    -0.13500
Br4117     Br  0.42368963  0.67819449  0.63280453    -0.05600
Br4118     Br  0.44950896  0.74320976  0.56921292     0.00100
Br4119     Br  0.46643657  0.71720148  0.68967657     0.00500
Br4120     Br  0.39461686  0.73031479  0.62977943    -0.03900
Br4121     Br  0.43079082  0.66572642  0.58802586     0.00600
Br4122     Br  0.44422920  0.75524029  0.61480589    -0.03200
Br4123     Br  0.47280025  0.71115940  0.64327249    -0.04100
Br4124     Br  0.38638866  0.73112582  0.67590988    -0.00100
C4125       C  0.47926889  0.73573169  0.52089781     0.01300
C4126       C  0.47386404  0.74995282  0.50777284     0.04200
C4127       C  0.48271785  0.76783259  0.50803671    -0.11900
C4128       C  0.49733848  0.77157368  0.52097198     0.23500
C4129       C  0.50357899  0.75724330  0.53326343    -0.12500
C4130       C  0.49459927  0.73945028  0.53339160     0.04900
C4131       C  0.50572687  0.79081719  0.52232333     0.27300
C4132       C  0.52056554  0.79625581  0.51016829    -0.13200
C4133       C  0.52928040  0.81405010  0.51233220     0.05400
C4134       C  0.52362484  0.82629197  0.52717008    -0.09100
C4135       C  0.50829654  0.82094654  0.53900209     0.06200
C4136       C  0.49934649  0.80334478  0.53643921    -0.13500
Br4137     Br  0.52423498  0.76242697  0.55042030    -0.05600
Br4138     Br  0.45485591  0.74513553  0.48875331     0.00100
Br4139     Br  0.54846437  0.82171864  0.49436653     0.00500
Br4140     Br  0.47869893  0.79590728  0.55279926    -0.03900
Br4141     Br  0.50308101  0.72105573  0.55179854     0.00600
Br4142     Br  0.47460765  0.78756042  0.49097161    -0.03200
Br4143     Br  0.52933237  0.77891906  0.49097055    -0.04100
Br4144     Br  0.50007622  0.83681611  0.55973552    -0.00100
C4145       C  0.45544204  0.66658240  0.47692302     0.01300
C4146       C  0.44159351  0.65357815  0.47077982     0.04200
C4147       C  0.44498111  0.64235603  0.45470094    -0.11900
C4148       C  0.46188372  0.64459150  0.44434306     0.23500
C4149       C  0.47514049  0.65844919  0.44975268    -0.12500
C4150       C  0.47212779  0.66914288  0.46626498     0.04900
C4151       C  0.46604549  0.63193820  0.42814226     0.27300
C4152       C  0.47740377  0.61578618  0.43082400    -0.13200
C4153       C  0.48204037  0.60412888  0.41535586     0.05400
C4154       C  0.47475917  0.60826063  0.39719529    -0.09100
C4155       C  0.46279076  0.62412655  0.39473945     0.06200
C4156       C  0.45877747  0.63610749  0.41011096    -0.13500
Br4157     Br  0.49746469  0.66257284  0.43453576    -0.05600
Br4158     Br  0.41844703  0.65022142  0.48495935     0.00100
Br4159     Br  0.49934985  0.58329933  0.41907730     0.00500
Br4160     Br  0.44350328  0.65846035  0.40654749    -0.03900
Br4161     Br  0.49085173  0.68727767  0.47434671     0.00600
Br4162     Br  0.42686054  0.62335479  0.44722476    -0.03200
Br4163     Br  0.48667426  0.60978358  0.45580131    -0.04100
Br4164     Br  0.45099828  0.62913967  0.37060060    -0.00100
C4165       C  0.36753699  0.55477659  0.55339756     0.01300
C4166       C  0.37838409  0.56232387  0.56837870     0.04200
C4167       C  0.38771281  0.57976926  0.56610424    -0.11900
C4168       C  0.38580996  0.58997971  0.54910047     0.23500
C4169       C  0.37425297  0.58289212  0.53450067    -0.12500
C4170       C  0.36537217  0.56518571  0.53651602     0.04900
C4171       C  0.39685340  0.60759575  0.54607945     0.27300
C4172       C  0.38972466  0.62512126  0.55225884    -0.13200
C4173       C  0.39991485  0.64188845  0.54866406     0.05400
C4174       C  0.41767657  0.64110218  0.53934639    -0.09100
C4175       C  0.42484392  0.62336903  0.53336433     0.06200
C4176       C  0.41443890  0.60673135  0.53673415    -0.13500
Br4177     Br  0.37105284  0.59731485  0.51155067    -0.05600
Br4178     Br  0.38174592  0.54821854  0.59154659     0.00100
Br4179     Br  0.38947102  0.66570128  0.55706239     0.00500
Br4180     Br  0.42425307  0.58254282  0.52862863    -0.03900
Br4181     Br  0.35028885  0.55514033  0.51610705     0.00600
Br4182     Br  0.40392306  0.58931560  0.58586708    -0.03200
Br4183     Br  0.36610286  0.62593201  0.56601369    -0.04100
Br4184     Br  0.44838018  0.62163228  0.51945372    -0.00100
C4185       C  0.67557112  0.44567271  0.05769681     0.01300
C4186       C  0.69449767  0.43978241  0.05982713     0.04200
C4187       C  0.69844955  0.42101036  0.06498814    -0.11900
C4188       C  0.68347908  0.40814046  0.06770215     0.23500
C4189       C  0.66465402  0.41372565  0.06443270    -0.12500
C4190       C  0.66066538  0.43247509  0.05937960     0.04900
C4191       C  0.68726272  0.38888709  0.07474401     0.27300
C4192       C  0.69182411  0.37434280  0.06194308    -0.13200
C4193       C  0.69364780  0.35568087  0.06848299     0.05400
C4194       C  0.69109091  0.35165678  0.08784570    -0.09100
C4195       C  0.68701429  0.36630370  0.10073529     0.06200
C4196       C  0.68500150  0.38492533  0.09415522    -0.13500
Br4197     Br  0.64427421  0.39579731  0.06779762    -0.05600
Br4198     Br  0.71495754  0.45729320  0.05513367     0.00100
Br4199     Br  0.69995091  0.33567984  0.05099236     0.00500
Br4200     Br  0.67852617  0.40499191  0.11155220    -0.03900
Br4201     Br  0.63461579  0.44011906  0.05602693     0.00600
Br4202     Br  0.72423522  0.41302320  0.06897324    -0.03200
Br4203     Br  0.69521635  0.38004844  0.03545096    -0.04100
Br4204     Br  0.68325325  0.36075719  0.12723476    -0.00100
C4205       C  0.58506987  0.72306349  0.18123792     0.01300
C4206       C  0.56629684  0.71811964  0.17651843     0.04200
C4207       C  0.56141547  0.71425886  0.15762844    -0.11900
C4208       C  0.57516366  0.71570737  0.14329096     0.23500
C4209       C  0.59375152  0.72120880  0.14777762    -0.12500
C4210       C  0.59878026  0.72469456  0.16670401     0.04900
C4211       C  0.57042657  0.71019127  0.12366816     0.27300
C4212       C  0.57186428  0.69106857  0.11828731    -0.13200
C4213       C  0.56767509  0.68568062  0.09964602     0.05400
C4214       C  0.56263903  0.69950525  0.08619854    -0.09100
C4215       C  0.56079358  0.71857349  0.09164343     0.06200
C4216       C  0.56457709  0.72390692  0.11043672    -0.13500
Br4217     Br  0.61243129  0.72332089  0.12791243    -0.05600
Br4218     Br  0.54694599  0.71727979  0.19558808     0.00100
Br4219     Br  0.56894026  0.65934738  0.09256109     0.00500
Br4220     Br  0.56164818  0.74988736  0.11817861    -0.03900
Br4221     Br  0.62486346  0.73032332  0.17262183     0.00600
Br4222     Br  0.53598926  0.70651313  0.15127297    -0.03200
Br4223     Br  0.57980378  0.67232220  0.13649572    -0.04100
Br4224     Br  0.55221736  0.73712539  0.07353952    -0.00100
C4225       C  0.48257068  0.82164067  0.02705944     0.01300
C4226       C  0.47710364  0.81025432  0.01155992     0.04200
C4227       C  0.48550322  0.79241180  0.00878704    -0.11900
C4228       C  0.49970469  0.78606608  0.02118878     0.23500
C4229       C  0.50618970  0.79796326  0.03578076    -0.12500
C4230       C  0.49751344  0.81560962  0.03890398     0.04900
C4231       C  0.50677842  0.76633098  0.02009482     0.27300
C4232       C  0.49877501  0.75244340  0.03192001    -0.13200
C4233       C  0.50714403  0.73442321  0.03332790     0.05400
C4234       C  0.52338007  0.72999322  0.02231536    -0.09100
C4235       C  0.52992490  0.74340200  0.00882224     0.06200
C4236       C  0.52202945  0.76167508  0.00819903    -0.13500
Br4237     Br  0.52653443  0.78956164  0.05196213    -0.05600
Br4238     Br  0.45828634  0.81913120  0.99387683     0.00100
Br4239     Br  0.49651257  0.71669905  0.05127234     0.00500
Br4240     Br  0.53246371  0.78066091  0.99153322    -0.03900
Br4241     Br  0.50512981  0.83049178  0.06050570     0.00600
Br4242     Br  0.47713115  0.77627441  0.98845887    -0.03200
Br4243     Br  0.47655253  0.75856062  0.04669115    -0.04100
Br4244     Br  0.54904570  0.73680520  0.99033875    -0.00100
C4245       C  0.58578201  0.63660752  0.04283471     0.01300
C4246       C  0.57974899  0.61882443  0.03598630     0.04200
C4247       C  0.59084438  0.60261784  0.03916485    -0.11900
C4248       C  0.60816193  0.60409299  0.04888908     0.23500
C4249       C  0.61422136  0.62174605  0.05578455    -0.12500
C4250       C  0.60315904  0.63801148  0.05268034     0.04900
C4251       C  0.62019952  0.58708150  0.05132817     0.27300
C4252       C  0.61639658  0.57421100  0.06607570    -0.13200
C4253       C  0.62691150  0.55738512  0.06749803     0.05400
C4254       C  0.64080694  0.55310004  0.05379980    -0.09100
C4255       C  0.64499206  0.56620680  0.03939293     0.06200
C4256       C  0.63488578  0.58332005  0.03831671    -0.13500
Br4257     Br  0.63769723  0.62347303  0.06960838    -0.05600
Br4258     Br  0.55705820  0.61667645  0.02091395     0.00100
Br4259     Br  0.62164101  0.53982695  0.08774033     0.00500
Br4260     Br  0.64073428  0.60141238  0.01871711    -0.03900
Br4261     Br  0.61189239  0.66203576  0.06233780     0.00600
Br4262     Br  0.58243040  0.57827303  0.03008520    -0.03200
Br4263     Br  0.59616454  0.57927735  0.08375562    -0.04100
Br4264     Br  0.66449148  0.56056428  0.02111020    -0.00100
C4265       C  0.43331161  0.47347281  0.18387274     0.01300
C4266       C  0.42768295  0.46618476  0.20163210     0.04200
C4267       C  0.40857382  0.46205506  0.20503482    -0.11900
C4268       C  0.39476882  0.46757419  0.19178723     0.23500
C4269       C  0.40014567  0.47714313  0.17514706    -0.12500
C4270       C  0.41939547  0.47911732  0.17063633     0.04900
C4271       C  0.37483888  0.46188845  0.19449738     0.27300
C4272       C  0.36704437  0.44778133  0.18276768    -0.13200
C4273       C  0.34797134  0.44274063  0.18480423     0.05400
C4274       C  0.33709252  0.45059154  0.19954917    -0.09100
C4275       C  0.34551497  0.46314405  0.21253481     0.06200
C4276       C  0.36389589  0.46988314  0.20913874    -0.13500
Br4277     Br  0.38102599  0.48659720  0.15804918    -0.05600
Br4278     Br  0.44588347  0.46238193  0.22167291     0.00100
Br4279     Br  0.33731393  0.42380537  0.16838174     0.00500
Br4280     Br  0.37390602  0.49028591  0.22425522    -0.03900
Br4281     Br  0.42612178  0.48749533  0.14544764     0.00600
Br4282     Br  0.40160844  0.44745475  0.22710699    -0.03200
Br4283     Br  0.38263377  0.43485461  0.16431932    -0.04100
Br4284     Br  0.33272448  0.46998395  0.23568871    -0.00100
C4285       C  0.50003816  0.50174617  0.21466195     0.01300
C4286       C  0.51484245  0.49705498  0.22722905     0.04200
C4287       C  0.51615822  0.50610962  0.24493886    -0.11900
C4288       C  0.50301403  0.52023112  0.24996751     0.23500
C4289       C  0.48894027  0.52573749  0.23699994    -0.12500
C4290       C  0.48720884  0.51633237  0.21955378     0.04900
C4291       C  0.50304982  0.52846752  0.26931595     0.27300
C4292       C  0.48998804  0.52183384  0.28286252    -0.13200
C4293       C  0.48849215  0.53075798  0.30060907     0.05400
C4294       C  0.50056219  0.54609866  0.30516651    -0.09100
C4295       C  0.51452153  0.55184023  0.29194911     0.06200
C4296       C  0.51543350  0.54334727  0.27394060    -0.13500
Br4297     Br  0.47162075  0.54586946  0.24351816    -0.05600
Br4298     Br  0.53363254  0.47856074  0.22009003     0.00100
Br4299     Br  0.46878799  0.52258268  0.31778203     0.00500
Br4300     Br  0.53316161  0.55251692  0.25525650    -0.03900
Br4301     Br  0.46609530  0.52250649  0.20331846     0.00600
Br4302     Br  0.53560291  0.49884158  0.26262977    -0.03200
Br4303     Br  0.47364608  0.50080377  0.27668698    -0.04100
Br4304     Br  0.53297939  0.57086095  0.29858574    -0.00100
C4305       C  0.54134368  0.46839442  0.14989958     0.01300
C4306       C  0.55343375  0.48406725  0.15216828     0.04200
C4307       C  0.57016784  0.48527755  0.14153653    -0.11900
C4308       C  0.57460340  0.47098551  0.12840925     0.23500
C4309       C  0.56344808  0.45452311  0.12737470    -0.12500
C4310       C  0.54688901  0.45308873  0.13834546     0.04900
C4311       C  0.58944927  0.47453024  0.11412606     0.27300
C4312       C  0.58474532  0.48454259  0.09756485    -0.13200
C4313       C  0.59893054  0.48961090  0.08456987     0.05400
C4314       C  0.61794533  0.48457705  0.08813310    -0.09100
C4315       C  0.62242165  0.47361687  0.10433410     0.06200
C4316       C  0.60818496  0.46881245  0.11739077    -0.13500
Br4317     Br  0.57017708  0.43469996  0.10985799    -0.05600
Br4318     Br  0.54675758  0.50411602  0.16948197     0.00100
Br4319     Br  0.59210387  0.50432842  0.06257308     0.00500
Br4320     Br  0.61424422  0.45471347  0.13998677    -0.03900
Br4321     Br  0.53113819  0.43087684  0.13626295     0.00600
Br4322     Br  0.58643976  0.50706735  0.14394375    -0.03200
Br4323     Br  0.55876267  0.49177646  0.09307302    -0.04100
Br4324     Br  0.64781801  0.46429091  0.10849189    -0.00100
C4325       C  0.42575641  0.32243033  0.84267545     0.01300
C4326       C  0.44440190  0.32169043  0.84960557     0.04200
C4327       C  0.44801371  0.32586726  0.86868796    -0.11900
C4328       C  0.43289240  0.32987007  0.88108844     0.23500
C4329       C  0.41413837  0.32970851  0.87436847    -0.12500
C4330       C  0.41059534  0.32644503  0.85506804     0.04900
C4331       C  0.43689583  0.33446936  0.90112173     0.27300
C4332       C  0.44013040  0.31982198  0.91421495    -0.13200
C4333       C  0.44551309  0.32416817  0.93284058     0.05400
C4334       C  0.44656583  0.34313280  0.93876709    -0.09100
C4335       C  0.44361013  0.35782543  0.92556749     0.06200
C4336       C  0.43867709  0.35348546  0.90678711    -0.13500
Br4337     Br  0.39339694  0.33398682  0.89164555    -0.05600
Br4338     Br  0.46487178  0.31420144  0.83311000     0.00100
Br4339     Br  0.45317836  0.30426701  0.94970302     0.00500
Br4340     Br  0.43389970  0.37352707  0.88885054    -0.03900
Br4341     Br  0.38511571  0.32859493  0.84546738     0.00600
Br4342     Br  0.47371300  0.32650532  0.87783421    -0.03200
Br4343     Br  0.43659501  0.29384206  0.90669771    -0.04100
Br4344     Br  0.44641883  0.38390785  0.93305838    -0.00100
C4345       C  0.52711651  0.22286779  0.99708452     0.01300
C4346       C  0.52936611  0.23834689  0.98471833     0.04200
C4347       C  0.51833978  0.25469051  0.98722285    -0.11900
C4348       C  0.50596244  0.25608038  0.00283206     0.23500
C4349       C  0.50429110  0.24087634  0.01564135    -0.12500
C4350       C  0.51447492  0.22407567  0.01246158     0.04900
C4351       C  0.49471540  0.27356627  0.00559474     0.27300
C4352       C  0.50340852  0.28990540  0.01284100    -0.13200
C4353       C  0.49351178  0.30716666  0.01315654     0.05400
C4354       C  0.47460605  0.30812905  0.00647744    -0.09100
C4355       C  0.46527690  0.29107095  0.00134585     0.06200
C4356       C  0.47557653  0.27405753  0.00020883    -0.13500
Br4357     Br  0.48834110  0.24327299  0.03768388    -0.05600
Br4358     Br  0.54756534  0.23722284  0.96435657     0.00100
Br4359     Br  0.50606068  0.32916641  0.02341376     0.00500
Br4360     Br  0.46388301  0.25152790  0.99005531    -0.03900
Br4361     Br  0.51153171  0.20286706  0.02940001     0.00600
Br4362     Br  0.51989132  0.27508169  0.96908350    -0.03200
Br4363     Br  0.52923478  0.28862359  0.02169814    -0.04100
Br4364     Br  0.43855385  0.29027917  0.99553041    -0.00100
C4365       C  0.45114774  0.38058799  0.04559369     0.01300
C4366       C  0.44057761  0.39741934  0.04749507     0.04200
C4367       C  0.44304102  0.40900920  0.06346023    -0.11900
C4368       C  0.45544736  0.40339587  0.07796541     0.23500
C4369       C  0.46441210  0.38560541  0.07702120    -0.12500
C4370       C  0.46238315  0.37427069  0.06075806     0.04900
C4371       C  0.46024724  0.41678826  0.09338926     0.27300
C4372       C  0.47590199  0.42897444  0.09122036    -0.13200
C4373       C  0.48105213  0.44131622  0.10594705     0.05400
C4374       C  0.47067012  0.44134270  0.12299526    -0.09100
C4375       C  0.45436935  0.42991721  0.12474218     0.06200
C4376       C  0.44925390  0.41753434  0.11001578    -0.13500
Br4377     Br  0.47981470  0.37712833  0.09785746    -0.05600
Br4378     Br  0.42290118  0.40485703  0.02815063     0.00100
Br4379     Br  0.50253794  0.45788607  0.10282898     0.00500
Br4380     Br  0.42732940  0.40146755  0.11258686    -0.03900
Br4381     Br  0.47449143  0.34992996  0.05940017     0.00600
Br4382     Br  0.43017012  0.43302930  0.06509408    -0.03200
Br4383     Br  0.49041501  0.42850047  0.06805543    -0.04100
Br4384     Br  0.43844954  0.43203749  0.14686848    -0.00100
C4385       C  0.33160227  0.59556110  0.94781462     0.01300
C4386       C  0.34544858  0.60980496  0.94586617     0.04200
C4387       C  0.33994110  0.62868493  0.94320243    -0.11900
C4388       C  0.32059767  0.63348199  0.94292197     0.23500
C4389       C  0.30675434  0.61937610  0.94564606    -0.12500
C4390       C  0.31224006  0.60034999  0.94783165     0.04900
C4391       C  0.31502285  0.65319738  0.93850751     0.27300
C4392       C  0.31240713  0.66649318  0.95311512    -0.13200
C4393       C  0.30904980  0.68562045  0.94865302     0.05400
C4394       C  0.30885967  0.69154767  0.92958603    -0.09100
C4395       C  0.31077243  0.67805933  0.91498963     0.06200
C4396       C  0.31367270  0.65890161  0.91946885    -0.13500
Br4397     Br  0.28037031  0.62625052  0.94650906    -0.05600
Br4398     Br  0.37205784  0.60344971  0.94620083     0.00100
Br4399     Br  0.30390864  0.70355264  0.96857924     0.00500
Br4400     Br  0.31640556  0.64038636  0.89956434    -0.03900
Br4401     Br  0.29332966  0.58096474  0.95143139     0.00600
Br4402     Br  0.35890943  0.64802052  0.93959664    -0.03200
Br4403     Br  0.31388834  0.65846268  0.97916055    -0.04100
Br4404     Br  0.31053572  0.68586005  0.88881378    -0.00100
C4405       C  0.42687395  0.40746820  0.97698919     0.01300
C4406       C  0.40967511  0.40703075  0.96671378     0.04200
C4407       C  0.40006839  0.42392668  0.96264575    -0.11900
C4408       C  0.40760442  0.44134685  0.96849929     0.23500
C4409       C  0.42519532  0.44202924  0.97776359    -0.12500
C4410       C  0.43492168  0.42516882  0.98196143     0.04900
C4411       C  0.39645680  0.45882605  0.96562736     0.27300
C4412       C  0.39886722  0.46965732  0.94908116    -0.13200
C4413       C  0.38792345  0.48604825  0.94629820     0.05400
C4414       C  0.37413425  0.49127755  0.95980821    -0.09100
C4415       C  0.37143723  0.48011284  0.97611616     0.06200
C4416       C  0.38283497  0.46412017  0.97919840    -0.13500
Br4417     Br  0.43555612  0.46616292  0.98524744    -0.05600
Br4418     Br  0.39931414  0.38351837  0.95730618     0.00100
Br4419     Br  0.39270219  0.50188359  0.92456488     0.00500
Br4420     Br  0.38015491  0.44957140  0.00217760    -0.03900
Br4421     Br  0.45866382  0.42680310  0.99547731     0.00600
Br4422     Br  0.37622451  0.42334929  0.94934122    -0.03200
Br4423     Br  0.41737904  0.46206295  0.93045320    -0.04100
Br4424     Br  0.35172243  0.48643815  0.99394307    -0.00100
C4425       C  0.58326734  0.58509761  0.83504796     0.01300
C4426       C  0.58907519  0.58458754  0.81595722     0.04200
C4427       C  0.60830112  0.58685289  0.81131034    -0.11900
C4428       C  0.62172479  0.58958422  0.82574142     0.23500
C4429       C  0.61603859  0.58942556  0.84485699    -0.12500
C4430       C  0.59684004  0.58698936  0.84953465     0.04900
C4431       C  0.64177284  0.59325634  0.82090678     0.27300
C4432       C  0.65488012  0.57826063  0.82036643    -0.13200
C4433       C  0.67420333  0.58202833  0.81739060     0.05400
C4434       C  0.68040053  0.60081609  0.81492871    -0.09100
C4435       C  0.66709490  0.61574672  0.81454955     0.06200
C4436       C  0.64782146  0.61193902  0.81761670    -0.13500
Br4437     Br  0.63461650  0.59299442  0.86454340    -0.05600
Br4438     Br  0.57081325  0.57981811  0.79625233     0.00100
Br4439     Br  0.69206457  0.56142326  0.81589141     0.00500
Br4440     Br  0.62965204  0.63235417  0.81781814    -0.03900
Br4441     Br  0.58915505  0.58674574  0.87576531     0.00600
Br4442     Br  0.61636108  0.58632738  0.78522399    -0.03200
Br4443     Br  0.64625330  0.55262278  0.82383678    -0.04100
Br4444     Br  0.67514969  0.64162604  0.81079899    -0.00100
C4445       C  0.52124553  0.55107721  0.79938467     0.01300
C4446       C  0.50993527  0.55875080  0.78468925     0.04200
C4447       C  0.51116548  0.55146992  0.76623005    -0.11900
C4448       C  0.52206592  0.53524330  0.76259844     0.23500
C4449       C  0.53178307  0.52630321  0.77751631    -0.12500
C4450       C  0.53189813  0.53444223  0.79573337     0.04900
C4451       C  0.52317372  0.52747661  0.74309624     0.27300
C4452       C  0.50788779  0.51708097  0.73566025    -0.13200
C4453       C  0.50914711  0.50924533  0.71742241     0.05400
C4454       C  0.52600187  0.51104560  0.70682670    -0.09100
C4455       C  0.54110517  0.52195771  0.71403533     0.06200
C4456       C  0.53958635  0.53032315  0.73205743    -0.13500
Br4457     Br  0.54519466  0.50295921  0.77273388    -0.05600
Br4458     Br  0.49163107  0.57848705  0.78970039     0.00100
Br4459     Br  0.48761961  0.49621747  0.70681595     0.00500
Br4460     Br  0.56028888  0.54509561  0.74202336    -0.03900
Br4461     Br  0.54757889  0.52295128  0.81493483     0.00600
Br4462     Br  0.49842815  0.56415536  0.74565589    -0.03200
Br4463     Br  0.48557528  0.51277154  0.75087665    -0.04100
Br4464     Br  0.56450585  0.52427872  0.70004634    -0.00100
C4465       C  0.47366018  0.57787947  0.86360478     0.01300
C4466       C  0.46343182  0.56078379  0.86264215     0.04200
C4467       C  0.44684083  0.55848191  0.87337792    -0.11900
C4468       C  0.44047154  0.57322187  0.88516236     0.23500
C4469       C  0.44986564  0.59077770  0.88512675    -0.12500
C4470       C  0.46647686  0.59314432  0.87435469     0.04900
C4471       C  0.42483068  0.56958603  0.89864702     0.27300
C4472       C  0.40607269  0.57378730  0.89362117    -0.13200
C4473       C  0.39114937  0.56880062  0.90582558     0.05400
C4474       C  0.39494243  0.55905511  0.92294625    -0.09100
C4475       C  0.41388381  0.55542401  0.92820409     0.06200
C4476       C  0.42877090  0.56090894  0.91614828    -0.13500
Br4477     Br  0.44049341  0.61113137  0.90074027    -0.05600
Br4478     Br  0.47241798  0.54032782  0.84692370     0.00100
Br4479     Br  0.36564373  0.57613485  0.89913326     0.00500
Br4480     Br  0.45471183  0.55621248  0.92331593    -0.03900
Br4481     Br  0.48022730  0.61669271  0.87597129     0.00600
Br4482     Br  0.43324869  0.53480677  0.87274818    -0.03200
Br4483     Br  0.40092915  0.58609358  0.86978737    -0.04100
Br4484     Br  0.41968625  0.54182159  0.95118551    -0.00100
C4485       C  0.53334757  0.61217850  0.89490601     0.01300
C4486       C  0.54164081  0.63042956  0.89447772     0.04200
C4487       C  0.54229697  0.64142706  0.91101689    -0.11900
C4488       C  0.53543355  0.63405657  0.92817898     0.23500
C4489       C  0.52655297  0.61624785  0.92859908    -0.12500
C4490       C  0.52515753  0.60546156  0.91194171     0.04900
C4491       C  0.53902292  0.64441275  0.94599253     0.27300
C4492       C  0.55692400  0.64292919  0.95462134    -0.13200
C4493       C  0.56051577  0.65237477  0.97171057     0.05400
C4494       C  0.54624795  0.66353431  0.98008654    -0.09100
C4495       C  0.52853291  0.66552081  0.97111567     0.06200
C4496       C  0.52484723  0.65578780  0.95417791    -0.13500
Br4497     Br  0.51637437  0.60667486  0.95211334    -0.05600
Br4498     Br  0.55309587  0.64037158  0.87168651     0.00100
Br4499     Br  0.58456124  0.64888805  0.98418719     0.00500
Br4500     Br  0.50031813  0.65766827  0.94237331    -0.03900
Br4501     Br  0.51087656  0.58213577  0.91251466     0.00600
Br4502     Br  0.55277280  0.66666664  0.91041697    -0.03200
Br4503     Br  0.57635319  0.62744078  0.94320179    -0.04100
Br4504     Br  0.50950364  0.68200953  0.98178367    -0.00100
C4505       C  0.07494563  0.70132688  0.43915187     0.01300
C4506       C  0.07404698  0.68671753  0.42544494     0.04200
C4507       C  0.07809328  0.69061969  0.40632420    -0.11900
C4508       C  0.08275388  0.70912242  0.40066748     0.23500
C4509       C  0.08378212  0.72366602  0.41419534    -0.12500
C4510       C  0.08031778  0.71971614  0.43342554     0.04900
C4511       C  0.08670322  0.71324345  0.38045842     0.27300
C4512       C  0.10549157  0.71324443  0.37372738    -0.13200
C4513       C  0.10919678  0.71672538  0.35447582     0.05400
C4514       C  0.09408233  0.71998076  0.34187385    -0.09100
C4515       C  0.07532583  0.72025722  0.34865500     0.06200
C4516       C  0.07164546  0.71693409  0.36794098    -0.13500
Br4517     Br  0.08957851  0.74911572  0.40613264    -0.05600
Br4518     Br  0.06843125  0.66095904  0.43272083     0.00100
Br4519     Br  0.13494551  0.71618592  0.34526602     0.00500
Br4520     Br  0.04598315  0.71722903  0.37728352    -0.03900
Br4521     Br  0.08270583  0.73975712  0.45160280     0.00600
Br4522     Br  0.07745043  0.67061684  0.38771803    -0.03200
Br4523     Br  0.12606868  0.70795189  0.39085433    -0.04100
Br4524     Br  0.05474862  0.72566714  0.33157335    -0.00100
C4525       C  0.98045763  0.81754187  0.50376789     0.01300
C4526       C  0.99299072  0.81519144  0.51906561     0.04200
C4527       C  0.00361906  0.79840548  0.52076134    -0.11900
C4528       C  0.00217671  0.78419329  0.50682149     0.23500
C4529       C  0.98955618  0.78654966  0.49156825    -0.12500
C4530       C  0.97852325  0.80303815  0.49021458     0.04900
C4531       C  0.01414643  0.76691276  0.50780758     0.27300
C4532       C  0.03336709  0.76777952  0.50263924    -0.13200
C4533       C  0.04445103  0.75121389  0.50237813     0.05400
C4534       C  0.03592321  0.73326430  0.50545511    -0.09100
C4535       C  0.01663538  0.73263760  0.51120697     0.06200
C4536       C  0.00608355  0.74946207  0.51294032    -0.13500
Br4537     Br  0.98764309  0.76728896  0.47227429    -0.05600
Br4538     Br  0.99523109  0.83480295  0.53787471     0.00100
Br4539     Br  0.07123539  0.75393810  0.49762357     0.00500
Br4540     Br  0.98030796  0.74874440  0.52211931    -0.03900
Br4541     Br  0.96106664  0.80586896  0.46944360     0.00600
Br4542     Br  0.02003112  0.79472654  0.54222787    -0.03200
Br4543     Br  0.04422124  0.79168686  0.49489987    -0.04100
Br4544     Br  0.00431292  0.70903443  0.51728549    -0.00100
C4545       C  0.18759861  0.59105649  0.68521046     0.01300
C4546       C  0.18381914  0.57148575  0.68531021     0.04200
C4547       C  0.16528582  0.56500039  0.68206853    -0.11900
C4548       C  0.15075453  0.57805419  0.67813882     0.23500
C4549       C  0.15475979  0.59753507  0.67715749    -0.12500
C4550       C  0.17311655  0.60405691  0.68092586     0.04900
C4551       C  0.13107181  0.57152400  0.67553561     0.27300
C4552       C  0.12440060  0.56727641  0.65729796    -0.13200
C4553       C  0.10514634  0.56317239  0.65453461     0.05400
C4554       C  0.09261690  0.56282116  0.67018442    -0.09100
C4555       C  0.09960945  0.56602702  0.68858144     0.06200
C4556       C  0.11874855  0.57072041  0.69119307    -0.13500
Br4557     Br  0.13495257  0.61526657  0.67089495    -0.05600
Br4558     Br  0.20381007  0.55367046  0.69063686     0.00100
Br4559     Br  0.09598926  0.55932135  0.62906284     0.00500
Br4560     Br  0.12811074  0.57656564  0.71614441    -0.03900
Br4561     Br  0.17846513  0.63083017  0.68000069     0.00600
Br4562     Br  0.15955400  0.53837208  0.68357684    -0.03200
Br4563     Br  0.14167654  0.56763226  0.63609095    -0.04100
Br4564     Br  0.08326008  0.56315751  0.71031835    -0.00100
C4565       C  0.04593349  0.59030242  0.61565389     0.01300
C4566       C  0.03619177  0.58913081  0.59827996     0.04200
C4567       C  0.03888050  0.60320763  0.58434748    -0.11900
C4568       C  0.05143193  0.61838179  0.58763801     0.23500
C4569       C  0.06131079  0.61943027  0.60486657    -0.12500
C4570       C  0.05867712  0.60542687  0.61876852     0.04900
C4571       C  0.05458297  0.63305492  0.57284786     0.27300
C4572       C  0.07038733  0.63176458  0.56073778    -0.13200
C4573       C  0.07328079  0.64543954  0.54654307     0.05400
C4574       C  0.05973460  0.65983364  0.54357016    -0.09100
C4575       C  0.04440794  0.66161084  0.55624946     0.06200
C4576       C  0.04205349  0.64847105  0.57109426    -0.13500
Br4577     Br  0.07820045  0.64038783  0.60951354    -0.05600
Br4578     Br  0.01851256  0.56882882  0.59385378     0.00100
Br4579     Br  0.09577607  0.64411731  0.53107906     0.00500
Br4580     Br  0.02179508  0.65154699  0.58916959    -0.03900
Br4581     Br  0.07310510  0.60684703  0.64192455     0.00600
Br4582     Br  0.02506448  0.60206992  0.56085926    -0.03200
Br4583     Br  0.08778434  0.61087011  0.56328219    -0.04100
Br4584     Br  0.02718507  0.68251338  0.55381186    -0.00100
C4585       C  0.17630416  0.44622972  0.44808709     0.01300
C4586       C  0.17208571  0.43338041  0.46319601     0.04200
C4587       C  0.17507781  0.41381024  0.46096887    -0.11900
C4588       C  0.18258857  0.40666080  0.44406915     0.23500
C4589       C  0.18742261  0.41903822  0.42928493    -0.12500
C4590       C  0.18430143  0.43867121  0.43110405     0.04900
C4591       C  0.18572642  0.38599544  0.44201058     0.27300
C4592       C  0.20358425  0.37824040  0.44606761    -0.13200
C4593       C  0.20685420  0.35877883  0.44354937     0.05400
C4594       C  0.19187866  0.34669585  0.43785075    -0.09100
C4595       C  0.17385416  0.35458675  0.43399983     0.06200
C4596       C  0.17086158  0.37417481  0.43605431    -0.13500
Br4597     Br  0.19841459  0.40872797  0.40640730    -0.05600
Br4598     Br  0.16274407  0.44149905  0.48768184     0.00100
Br4599     Br  0.23212994  0.34919670  0.44779066     0.00500
Br4600     Br  0.14639933  0.38503999  0.43057783    -0.03900
Br4601     Br  0.19119641  0.45430680  0.40966098     0.00600
Br4602     Br  0.16902785  0.39634345  0.48120786    -0.03200
Br4603     Br  0.22350261  0.39445206  0.45537458    -0.04100
Br4604     Br  0.15351896  0.33914806  0.42422135    -0.00100
C4605       C  0.21252941  0.50848295  0.48331551     0.01300
C4606       C  0.22659177  0.52157831  0.47743622     0.04200
C4607       C  0.24472650  0.52132151  0.48572598    -0.11900
C4608       C  0.24876080  0.50872466  0.50060049     0.23500
C4609       C  0.23449526  0.49656856  0.50739124    -0.12500
C4610       C  0.21658395  0.49613674  0.49862409     0.04900
C4611       C  0.26791499  0.50844330  0.50939358     0.27300
C4612       C  0.28124290  0.49458237  0.50408771    -0.13200
C4613       C  0.29878214  0.49334295  0.51352867     0.05400
C4614       C  0.30354772  0.50670951  0.52767516    -0.09100
C4615       C  0.29051993  0.52127865  0.53209868     0.06200
C4616       C  0.27260685  0.52176367  0.52340719    -0.13500
Br4617     Br  0.23967349  0.48046546  0.52885636    -0.05600
Br4618     Br  0.22099767  0.54080428  0.45880841     0.00100
Br4619     Br  0.31536775  0.47234815  0.50790214     0.00500
Br4620     Br  0.25415875  0.54042202  0.53100037    -0.03900
Br4621     Br  0.19833154  0.47771025  0.50730110     0.00600
Br4622     Br  0.26427625  0.53814247  0.47665124    -0.03200
Br4623     Br  0.27525863  0.47719464  0.48390878    -0.04100
Br4624     Br  0.29731697  0.54124707  0.54945123    -0.00100
C4625       C  0.09434720  0.63897200  0.47821786     0.01300
C4626       C  0.08858590  0.62065233  0.48382575     0.04200
C4627       C  0.09997904  0.60494007  0.47943697    -0.11900
C4628       C  0.11705815  0.60741718  0.46941841     0.23500
C4629       C  0.12253350  0.62553482  0.46329907    -0.12500
C4630       C  0.11118856  0.64129028  0.46759707     0.04900
C4631       C  0.12896209  0.59076614  0.46498667     0.27300
C4632       C  0.14210098  0.58407401  0.47836621    -0.13200
C4633       C  0.15154589  0.56684939  0.47523833     0.05400
C4634       C  0.14813286  0.55647644  0.45855294    -0.09100
C4635       C  0.13579942  0.56379225  0.44465452     0.06200
C4636       C  0.12616839  0.58089056  0.44793684    -0.13500
Br4637     Br  0.14554504  0.62862208  0.44886744    -0.05600
Br4638     Br  0.06557520  0.61686664  0.49818562     0.00100
Br4639     Br  0.16889811  0.55721705  0.49398331     0.00500
Br4640     Br  0.10830534  0.59041395  0.42961165    -0.03900
Br4641     Br  0.11837014  0.66585702  0.45791329     0.00600
Br4642     Br  0.09228860  0.57986902  0.48713764    -0.03200
Br4643     Br  0.14656662  0.59823552  0.50125646    -0.04100
Br4644     Br  0.13068322  0.54970763  0.42185181    -0.00100
C4645       C  0.83055166  0.44382660  0.31427694     0.01300
C4646       C  0.84291121  0.42839455  0.31690760     0.04200
C4647       C  0.86203563  0.43167158  0.32094170    -0.11900
C4648       C  0.86898649  0.45030263  0.32146193     0.23500
C4649       C  0.85679609  0.46572669  0.31819525    -0.12500
C4650       C  0.83749787  0.46247915  0.31471435     0.04900
C4651       C  0.88909210  0.45348426  0.32592803     0.27300
C4652       C  0.89446088  0.45694887  0.34474772    -0.13200
C4653       C  0.91367255  0.45883532  0.34928324     0.05400
C4654       C  0.92757283  0.45704645  0.33497489    -0.09100
C4655       C  0.92216858  0.45333870  0.31616031     0.06200
C4656       C  0.90288445  0.45172804  0.31162578    -0.13500
Br4657     Br  0.86650281  0.49120915  0.31896390    -0.05600
Br4658     Br  0.83369228  0.40272121  0.31560210     0.00100
Br4659     Br  0.92081141  0.46313239  0.37533613     0.00500
Br4660     Br  0.89518671  0.44720706  0.28584685    -0.03900
Br4661     Br  0.82064119  0.48343127  0.30995072     0.00600
Br4662     Br  0.87862573  0.41073096  0.32670982    -0.03200
Br4663     Br  0.87540950  0.45873795  0.36432757    -0.04100
Br4664     Br  0.94101488  0.45120588  0.29647411    -0.00100
C4665       C  0.03337843  0.47579424  0.37014232     0.01300
C4666       C  0.04327610  0.49252071  0.36558046     0.04200
C4667       C  0.05969039  0.49743680  0.37568698    -0.11900
C4668       C  0.06621286  0.48559690  0.39031689     0.23500
C4669       C  0.05638784  0.46883008  0.39477656    -0.12500
C4670       C  0.04003179  0.46388585  0.38466148     0.04900
C4671       C  0.08374826  0.49022735  0.40075953     0.27300
C4672       C  0.10097852  0.48220213  0.39488013    -0.13200
C4673       C  0.11721870  0.48414826  0.40613730     0.05400
C4674       C  0.11651261  0.49490541  0.42299021    -0.09100
C4675       C  0.09930631  0.50359090  0.42847961     0.06200
C4676       C  0.08293559  0.50111134  0.41741616    -0.13500
Br4677     Br  0.06503902  0.45303551  0.41530269    -0.05600
Br4678     Br  0.03434702  0.50858716  0.34537912     0.00100
Br4679     Br  0.13989198  0.47061858  0.39906016     0.00500
Br4680     Br  0.05926716  0.51247671  0.42500828    -0.03900
Br4681     Br  0.02606686  0.44144404  0.39158754     0.00600
Br4682     Br  0.07299099  0.52056335  0.36991871    -0.03200
Br4683     Br  0.10211505  0.46831142  0.37138404    -0.04100
Br4684     Br  0.09802074  0.51934261  0.45078091    -0.00100
C4685       C  0.94373447  0.35244676  0.59091160     0.01300
C4686       C  0.93895050  0.36651892  0.60425272     0.04200
C4687       C  0.93648176  0.36166373  0.62343254    -0.11900
C4688       C  0.93873052  0.34274043  0.62929632     0.23500
C4689       C  0.94387374  0.32877776  0.61603238    -0.12500
C4690       C  0.94645464  0.33363455  0.59689079     0.04900
C4691       C  0.93477457  0.33728966  0.64920832     0.27300
C4692       C  0.94925987  0.33775076  0.66285958    -0.13200
C4693       C  0.94542689  0.33239621  0.68169724     0.05400
C4694       C  0.92708055  0.32630675  0.68689434    -0.09100
C4695       C  0.91260258  0.32578262  0.67307162     0.06200
C4696       C  0.91646947  0.33133088  0.65434498    -0.13500
Br4697     Br  0.94703949  0.30292771  0.62415877    -0.05600
Br4698     Br  0.93493652  0.39228901  0.59616811     0.00100
Br4699     Br  0.96556449  0.33281284  0.70011777     0.00500
Br4700     Br  0.89661350  0.33104238  0.63559406    -0.03900
Br4701     Br  0.95419263  0.31462129  0.57890177     0.00600
Br4702     Br  0.92959015  0.38077565  0.64168639    -0.03200
Br4703     Br  0.97437214  0.34563508  0.65556194    -0.04100
Br4704     Br  0.88703079  0.31857093  0.67970925    -0.00100
C4705       C  0.98105793  0.32132339  0.52729830     0.01300
C4706       C  0.97622821  0.30767540  0.51348520     0.04200
C4707       C  0.98550677  0.29012224  0.51318576    -0.11900
C4708       C  0.00034023  0.28653137  0.52591174     0.23500
C4709       C  0.00627966  0.30064264  0.53861487    -0.12500
C4710       C  0.99634893  0.31782247  0.53973925     0.04900
C4711       C  0.00886921  0.26747955  0.52691067     0.27300
C4712       C  0.00305761  0.25492367  0.54123766    -0.13200
C4713       C  0.01223678  0.23743195  0.54343908     0.05400
C4714       C  0.02653694  0.23192793  0.53046598    -0.09100
C4715       C  0.03121874  0.24406314  0.51520609     0.06200
C4716       C  0.02291979  0.26207439  0.51390162    -0.13500
Br4717     Br  0.02770294  0.29600631  0.55492390    -0.05600
Br4718     Br  0.95715011  0.31291504  0.49461361     0.00100
Br4719     Br  0.00597937  0.22214343  0.56526400     0.00500
Br4720     Br  0.03119428  0.27970831  0.49472160    -0.03900
Br4721     Br  0.00280642  0.33540654  0.55965875     0.00600
Br4722     Br  0.97738780  0.27060311  0.49591843    -0.03200
Br4723     Br  0.98268550  0.26205357  0.55810599    -0.04100
Br4724     Br  0.04831110  0.23592822  0.49544463    -0.00100
C4725       C  0.95085346  0.38265232  0.48121903     0.01300
C4726       C  0.93500775  0.39071534  0.47206362     0.04200
C4727       C  0.93740430  0.40053327  0.45482142    -0.11900
C4728       C  0.95553778  0.40208904  0.44658083     0.23500
C4729       C  0.97087014  0.39226191  0.45465942    -0.12500
C4730       C  0.96853596  0.38255211  0.47189791     0.04900
C4731       C  0.95875755  0.41440389  0.42974872     0.27300
C4732       C  0.95586973  0.40730344  0.41141524    -0.13200
C4733       C  0.95990978  0.41863206  0.39549037     0.05400
C4734       C  0.96763802  0.43707005  0.39774961    -0.09100
C4735       C  0.97031962  0.44418770  0.41627510     0.06200
C4736       C  0.96561105  0.43297829  0.43214534    -0.13500
Br4737     Br  0.99511829  0.39227101  0.44206639    -0.05600
Br4738     Br  0.91014970  0.38906360  0.48332778     0.00100
Br4739     Br  0.95392547  0.40870736  0.37071154     0.00500
Br4740     Br  0.96883240  0.44286079  0.45739521    -0.03900
Br4741     Br  0.98939959  0.36841897  0.48241893     0.00600
Br4742     Br  0.91599037  0.41221710  0.44260679    -0.03200
Br4743     Br  0.94670810  0.38175565  0.40825938    -0.04100
Br4744     Br  0.98166345  0.46870045  0.42029365    -0.00100
C4745       C  0.82203332  0.69545963  0.59315333     0.01300
C4746       C  0.82323087  0.68380393  0.60935582     0.04200
C4747       C  0.82638784  0.66434402  0.60731128    -0.11900
C4748       C  0.82720242  0.65633065  0.58913670     0.23500
C4749       C  0.82531418  0.66780606  0.57294529    -0.12500
C4750       C  0.82292351  0.68744052  0.57494841     0.04900
C4751       C  0.82946942  0.63569844  0.58717128     0.27300
C4752       C  0.84761870  0.62792252  0.58463120    -0.13200
C4753       C  0.84977828  0.60826240  0.58301382     0.05400
C4754       C  0.83374238  0.59638587  0.58397007    -0.09100
C4755       C  0.81559263  0.60418743  0.58674681     0.06200
C4756       C  0.81349009  0.62385827  0.58845667    -0.13500
Br4757     Br  0.82580214  0.65650068  0.54812227    -0.05600
Br4758     Br  0.82048776  0.69422928  0.63447760     0.00100
Br4759     Br  0.87484408  0.59762455  0.58033362     0.00500
Br4760     Br  0.78878348  0.63470641  0.59276691    -0.03900
Br4761     Br  0.81957033  0.70317405  0.55288681     0.00600
Br4762     Br  0.82989592  0.64857284  0.62936798    -0.03200
Br4763     Br  0.86950419  0.64425808  0.58386533    -0.04100
Br4764     Br  0.79350607  0.58810684  0.58730929    -0.00100
C4765       C  0.79219508  0.53609187  0.55011640     0.01300
C4766       C  0.78764235  0.54945478  0.53593487     0.04200
C4767       C  0.77024250  0.54826674  0.52643437    -0.11900
C4768       C  0.75707013  0.53421663  0.53152173     0.23500
C4769       C  0.76154349  0.52083890  0.54554241    -0.12500
C4770       C  0.77919795  0.52154717  0.55462479     0.04900
C4771       C  0.73814462  0.53406387  0.52269281     0.27300
C4772       C  0.72413323  0.54654995  0.52930009    -0.13200
C4773       C  0.70651833  0.54750277  0.52015980     0.05400
C4774       C  0.70264098  0.53534758  0.50466709    -0.09100
C4775       C  0.71631300  0.52174493  0.49916764     0.06200
C4776       C  0.73422698  0.52159474  0.50773426    -0.13500
Br4777     Br  0.74321307  0.50175556  0.55243209    -0.05600
Br4778     Br  0.80445294  0.57028915  0.53026003     0.00100
Br4779     Br  0.68868317  0.56653550  0.52848798     0.00500
Br4780     Br  0.75375861  0.50482291  0.49854890    -0.03900
Br4781     Br  0.78565055  0.50201456  0.57260651     0.00600
Br4782     Br  0.76419798  0.56605676  0.50658066    -0.03200
Br4783     Br  0.72950200  0.56281498  0.55061045    -0.04100
Br4784     Br  0.71053844  0.50263391  0.48047754    -0.00100
C4785       C  0.91346215  0.40959879  0.54895026     0.01300
C4786       C  0.91833627  0.42863977  0.54519082     0.04200
C4787       C  0.90662458  0.44326151  0.55174502    -0.11900
C4788       C  0.88967665  0.43890578  0.56125589     0.23500
C4789       C  0.88470373  0.42008001  0.56501794    -0.12500
C4790       C  0.89667095  0.40539297  0.55916084     0.04900
C4791       C  0.87655027  0.45418949  0.56633441     0.27300
C4792       C  0.87831007  0.46341713  0.58385529    -0.13200
C4793       C  0.86727697  0.47947069  0.58762940     0.05400
C4794       C  0.85454161  0.48617035  0.57379367    -0.09100
C4795       C  0.85176524  0.47598453  0.55692820     0.06200
C4796       C  0.86292258  0.46006997  0.55310324    -0.13500
Br4797     Br  0.86138341  0.41461497  0.57826318    -0.05600
Br4798     Br  0.94026548  0.43500124  0.53005469     0.00100
Br4799     Br  0.87124141  0.49327043  0.61085930     0.00500
Br4800     Br  0.86061238  0.44709852  0.52919074    -0.03900
Br4801     Br  0.89010032  0.37977048  0.56622404     0.00600
Br4802     Br  0.91365309  0.46937307  0.54771653    -0.03200
Br4803     Br  0.89688469  0.45485811  0.60194668    -0.04100
Br4804     Br  0.83313255  0.48432277  0.53881556    -0.00100
C4805       C  0.98257641  0.54912842  0.64617215     0.01300
C4806       C  0.97354117  0.56423563  0.63678901     0.04200
C4807       C  0.95523464  0.56184311  0.62949353    -0.11900
C4808       C  0.94562103  0.54458014  0.63206087     0.23500
C4809       C  0.95439638  0.52959073  0.64180881    -0.12500
C4810       C  0.97299360  0.53173846  0.64859510     0.04900
C4811       C  0.92652796  0.54224206  0.62380520     0.27300
C4812       C  0.91073834  0.55037243  0.63283637    -0.13200
C4813       C  0.89313505  0.55090620  0.62359761     0.05400
C4814       C  0.89111674  0.54260845  0.60549976    -0.09100
C4815       C  0.90677795  0.53333440  0.59705785     0.06200
C4816       C  0.92448380  0.53347097  0.60606801    -0.13500
Br4817     Br  0.94097369  0.50607820  0.64549008    -0.05600
Br4818     Br  0.98663370  0.58786702  0.63265996     0.00100
Br4819     Br  0.87235154  0.56418221  0.63543661     0.00500
Br4820     Br  0.94615271  0.52196623  0.59395603    -0.03900
Br4821     Br  0.98520762  0.51083688  0.66123587     0.00600
Br4822     Br  0.94356096  0.58193124  0.61511479    -0.03200
Br4823     Br  0.91350217  0.56108238  0.65779993    -0.04100
Br4824     Br  0.90414651  0.51954767  0.57357002    -0.00100
C4825       C  0.94170794  0.69406259  0.93650330     0.01300
C4826       C  0.94225142  0.71299258  0.93019880     0.04200
C4827       C  0.94086814  0.71699869  0.91074251    -0.11900
C4828       C  0.93864541  0.70210843  0.89770858     0.23500
C4829       C  0.93785848  0.68325624  0.90402816    -0.12500
C4830       C  0.93951550  0.67920638  0.92337213     0.04900
C4831       C  0.93632497  0.70600622  0.87732698     0.27300
C4832       C  0.91800541  0.70819662  0.86990128    -0.13200
C4833       C  0.91540601  0.70938453  0.85026694     0.05400
C4834       C  0.93119620  0.70848469  0.83800131    -0.09100
C4835       C  0.94956469  0.70634927  0.84546685     0.06200
C4836       C  0.95212000  0.70530487  0.86516128    -0.13500
Br4837     Br  0.93402334  0.66302692  0.88605916    -0.05600
Br4838     Br  0.94537206  0.73336380  0.94809405     0.00100
Br4839     Br  0.88999288  0.71079837  0.84025962     0.00500
Br4840     Br  0.97717726  0.70264821  0.87561204    -0.03900
Br4841     Br  0.93783209  0.65327935  0.93183575     0.00600
Br4842     Br  0.94193357  0.74277209  0.90183655    -0.03200
Br4843     Br  0.89643790  0.70887988  0.88672916    -0.04100
Br4844     Br  0.97124544  0.70498743  0.82885343    -0.00100
C4845       C  0.97838261  0.72519304  0.00127913     0.01300
C4846       C  0.97583401  0.73625033  0.01773067     0.04200
C4847       C  0.98585278  0.75330917  0.01987904    -0.11900
C4848       C  0.99858524  0.75923978  0.00572587     0.23500
C4849       C  0.00192245  0.74772641  0.98980960    -0.12500
C4850       C  0.99169943  0.73084159  0.98744297     0.04900
C4851       C  0.00677014  0.77853168  0.00625656     0.27300
C4852       C  0.99779627  0.79305132  0.99613202    -0.13200
C4853       C  0.00645792  0.81087011  0.99427129     0.05400
C4854       C  0.02405589  0.81464302  0.00339618    -0.09100
C4855       C  0.03222285  0.80017110  0.01483698     0.06200
C4856       C  0.02380655  0.78210304  0.01577795    -0.13500
Br4857     Br  0.01990307  0.75572369  0.97078878    -0.05600
Br4858     Br  0.95871068  0.72805075  0.03743682     0.00100
Br4859     Br  0.99403202  0.82898221  0.97790318     0.00500
Br4860     Br  0.03578195  0.76182426  0.02964811    -0.03900
Br4861     Br  0.99478131  0.71657842  0.96432351     0.00600
Br4862     Br  0.98164831  0.76900131  0.04180546    -0.03200
Br4863     Br  0.97366972  0.78800669  0.98418667    -0.04100
Br4864     Br  0.05462418  0.80451257  0.02992403    -0.00100
C4865       C  0.92738682  0.56500960  0.18215661     0.01300
C4866       C  0.92385566  0.56488569  0.20179919     0.04200
C4867       C  0.90547655  0.56834378  0.20869118    -0.11900
C4868       C  0.89065735  0.57221843  0.19596873     0.23500
C4869       C  0.89399246  0.57143623  0.17630661    -0.12500
C4870       C  0.91230764  0.56772418  0.16938514     0.04900
C4871       C  0.87205113  0.57897500  0.20303679     0.27300
C4872       C  0.85682913  0.56632012  0.20536767    -0.13200
C4873       C  0.83852311  0.57331100  0.20913267     0.05400
C4874       C  0.83552962  0.59295906  0.21103747    -0.09100
C4875       C  0.85114453  0.60543198  0.21039371     0.06200
C4876       C  0.86929583  0.59846578  0.20610043    -0.13500
Br4877     Br  0.87356639  0.57646665  0.15890405    -0.05600
Br4878     Br  0.94427758  0.55997954  0.21923196     0.00100
Br4879     Br  0.81764770  0.55596944  0.21218813     0.00500
Br4880     Br  0.89037526  0.61569755  0.20357142    -0.03900
Br4881     Br  0.91689604  0.56779109  0.14243379     0.00600
Br4882     Br  0.90061856  0.56835623  0.23553348    -0.03200
Br4883     Br  0.86119423  0.53949210  0.20322808    -0.04100
Br4884     Br  0.84771790  0.63224583  0.21435341    -0.00100
C4885       C  0.99106224  0.49252189  0.30035136     0.01300
C4886       C  0.00672032  0.48739803  0.28885449     0.04200
C4887       C  0.00840104  0.49451543  0.27028893    -0.11900
C4888       C  0.99490362  0.50731015  0.26323530     0.23500
C4889       C  0.97953758  0.51281825  0.27472250    -0.12500
C4890       C  0.97739538  0.50521690  0.29305946     0.04900
C4891       C  0.99645036  0.51456920  0.24350740     0.27300
C4892       C  0.00779517  0.53041796  0.23944351    -0.13200
C4893       C  0.00760994  0.53846632  0.22120892     0.05400
C4894       C  0.99548629  0.53110801  0.20704420    -0.09100
C4895       C  0.98616044  0.51364236  0.21052225     0.06200
C4896       C  0.98644849  0.50563936  0.22880430    -0.13500
Br4897     Br  0.96108767  0.53043766  0.26496251    -0.05600
Br4898     Br  0.02628935  0.47090547  0.29840883     0.00100
Br4899     Br  0.02506333  0.55875883  0.21547895     0.00500
Br4900     Br  0.97274999  0.48257348  0.23402540    -0.03900
Br4901     Br  0.95471082  0.51098029  0.30723467     0.00600
Br4902     Br  0.02886470  0.48632479  0.25410045    -0.03200
Br4903     Br  0.02331437  0.54128807  0.25906272    -0.04100
Br4904     Br  0.97298815  0.50015059  0.19074820    -0.00100
C4905       C  0.96288415  0.59658059  0.11943336     0.01300
C4906       C  0.95126017  0.61234036  0.12367734     0.04200
C4907       C  0.94607628  0.62506861  0.10930435    -0.11900
C4908       C  0.95227807  0.62202624  0.09065015     0.23500
C4909       C  0.96272182  0.60567387  0.08610671    -0.12500
C4910       C  0.96824360  0.59306409  0.10046732     0.04900
C4911       C  0.94937078  0.63670231  0.07600818     0.27300
C4912       C  0.93235748  0.63749770  0.06571019    -0.13200
C4913       C  0.93077577  0.64985819  0.05019446     0.05400
C4914       C  0.94656406  0.66073798  0.04446915    -0.09100
C4915       C  0.96316105  0.66072317  0.05547641     0.06200
C4916       C  0.96440536  0.64899334  0.07145756    -0.13500
Br4917     Br  0.96977903  0.60091817  0.06010162    -0.05600
Br4918     Br  0.94193275  0.61648283  0.14906805     0.00100
Br4919     Br  0.90746004  0.65057160  0.03597853     0.00500
Br4920     Br  0.98704370  0.64902834  0.08670957    -0.03900
Br4921     Br  0.98436276  0.57193873  0.09404792     0.00600
Br4922     Br  0.93072856  0.64690060  0.11510788    -0.03200
Br4923     Br  0.91177145  0.62070492  0.07207842    -0.04100
Br4924     Br  0.98435653  0.67646470  0.04839364    -0.00100
C4925       C  0.17487712  0.60226313  0.05298095     0.01300
C4926       C  0.16023517  0.61544535  0.05611079     0.04200
C4927       C  0.16466176  0.63454611  0.05928537    -0.11900
C4928       C  0.18366882  0.64052520  0.05904282     0.23500
C4929       C  0.19815353  0.62766323  0.05432273    -0.12500
C4930       C  0.19376950  0.60847598  0.05141846     0.04900
C4931       C  0.18842783  0.65967816  0.06599216     0.27300
C4932       C  0.18960601  0.67509915  0.05343428    -0.13200
C4933       C  0.19288240  0.69343469  0.06049888     0.05400
C4934       C  0.19526807  0.69624875  0.08014003    -0.09100
C4935       C  0.19410411  0.68073476  0.09264758     0.06200
C4936       C  0.19065401  0.66251925  0.08558013    -0.13500
Br4937     Br  0.22396971  0.63631094  0.05236757    -0.05600
Br4938     Br  0.13419985  0.60723622  0.05719997     0.00100
Br4939     Br  0.19452887  0.71450289  0.04318613     0.00500
Br4940     Br  0.18852017  0.64137740  0.10278573    -0.03900
Br4941     Br  0.21355297  0.59070906  0.04516974     0.00600
Br4942     Br  0.14484553  0.65246729  0.06497459    -0.03200
Br4943     Br  0.18665256  0.67094766  0.02663153    -0.04100
Br4944     Br  0.19615531  0.68447625  0.11965106    -0.00100
C4945       C  0.30235034  0.53358938  0.98341358     0.01300
C4946       C  0.28864586  0.52013393  0.97773001     0.04200
C4947       C  0.26988202  0.52159320  0.98422578    -0.11900
C4948       C  0.26506403  0.53524307  0.99786354     0.23500
C4949       C  0.27887062  0.54791357  0.00454178    -0.12500
C4950       C  0.29723923  0.54765591  0.99680652     0.04900
C4951       C  0.24558641  0.53580963  0.00565280     0.27300
C4952       C  0.23250255  0.54935990  0.99913957    -0.13200
C4953       C  0.21420336  0.55016575  0.00703085     0.05400
C4954       C  0.20903247  0.53745162  0.02162387    -0.09100
C4955       C  0.22188979  0.52324283  0.02733413     0.06200
C4956       C  0.24018312  0.52262404  0.01956397    -0.13500
Br4957     Br  0.27238684  0.56587178  0.02411503    -0.05600
Br4958     Br  0.29545883  0.49910083  0.96167763     0.00100
Br4959     Br  0.19682800  0.56939879  0.99833735     0.00500
Br4960     Br  0.25819019  0.50408515  0.02841743    -0.03900
Br4961     Br  0.31437093  0.56790837  0.00348347     0.00600
Br4962     Br  0.25044445  0.50536691  0.97398626    -0.03200
Br4963     Br  0.23996574  0.56722066  0.97983166    -0.04100
Br4964     Br  0.21435527  0.50406839  0.04534737    -0.00100
C4965       C  0.11585485  0.55683962  0.08394249     0.01300
C4966       C  0.09908859  0.54669351  0.08005641     0.04200
C4967       C  0.08316359  0.54893865  0.09177080    -0.11900
C4968       C  0.08410665  0.56077375  0.10776328     0.23500
C4969       C  0.10087298  0.57069179  0.11185607    -0.12500
C4970       C  0.11664317  0.56898894  0.09980629     0.04900
C4971       C  0.06729093  0.56275948  0.12011751     0.27300
C4972       C  0.05487964  0.57812854  0.11754515    -0.13200
C4973       C  0.03778239  0.57888434  0.12771498     0.05400
C4974       C  0.03298501  0.56412040  0.14026392    -0.09100
C4975       C  0.04580866  0.54922300  0.14349859     0.06200
C4976       C  0.06301809  0.54859361  0.13349641    -0.13500
Br4977     Br  0.10222427  0.58635982  0.13416603    -0.05600
Br4978     Br  0.09815337  0.52860679  0.05957853     0.00100
Br4979     Br  0.02049764  0.59961873  0.12361192     0.00500
Br4980     Br  0.08057520  0.52810545  0.13764290    -0.03900
Br4981     Br  0.13901974  0.58387718  0.10481160     0.00600
Br4982     Br  0.05998128  0.53564195  0.08607564    -0.03200
Br4983     Br  0.06098491  0.59767061  0.09944036    -0.04100
Br4984     Br  0.03981291  0.52982218  0.16176585    -0.00100
C4985       C  0.83054166  0.44341305  0.94259452     0.01300
C4986       C  0.81158361  0.43916333  0.93788323     0.04200
C4987       C  0.80585168  0.42021770  0.93598342    -0.11900
C4988       C  0.81889032  0.40554134  0.93923306     0.23500
C4989       C  0.83771927  0.40973084  0.94415104    -0.12500
C4990       C  0.84361707  0.42862210  0.94565984     0.04900
C4991       C  0.81324857  0.38560338  0.93662516     0.27300
C4992       C  0.80625313  0.37503367  0.95202128    -0.13200
C4993       C  0.80362434  0.35539494  0.95016246     0.05400
C4994       C  0.80712260  0.34656190  0.93263571    -0.09100
C4995       C  0.81272350  0.35747311  0.91687786     0.06200
C4996       C  0.81627278  0.37687529  0.91900420    -0.13500
Br4997     Br  0.85548999  0.38942900  0.94848596    -0.05600
Br4998     Br  0.79311418  0.45910918  0.93501399     0.00100
Br4999     Br  0.79525874  0.34067958  0.97154709     0.00500
Br5000     Br  0.82601366  0.39146699  0.89802301    -0.03900
Br5001     Br  0.86989553  0.43403625  0.95097477     0.00600
Br5002     Br  0.78021198  0.41423541  0.92880230    -0.03200
Br5003     Br  0.80048562  0.38755242  0.97558448    -0.04100
Br5004     Br  0.81597081  0.34587390  0.89239784    -0.00100
C5005       C  0.79695852  0.50408347  0.97692692     0.01300
C5006       C  0.79268711  0.49155515  0.99203984     0.04200
C5007       C  0.77526885  0.49295403  0.00157220    -0.11900
C5008       C  0.76138525  0.50561623  0.99507821     0.23500
C5009       C  0.76514458  0.51746296  0.97954635    -0.12500
C5010       C  0.78303670  0.51716248  0.97082005     0.04900
C5011       C  0.74261258  0.50629315  0.00434111     0.27300
C5012       C  0.72876787  0.49276247  0.99973206    -0.13200
C5013       C  0.71100922  0.49322235  0.00873644     0.05400
C5014       C  0.70675316  0.50783177  0.02178514    -0.09100
C5015       C  0.72048387  0.52180377  0.02573813     0.06200
C5016       C  0.73853922  0.52068225  0.01746087    -0.13500
Br5017     Br  0.74545871  0.53390994  0.97012901    -0.05600
Br5018     Br  0.80951570  0.47103125  0.99875588     0.00100
Br5019     Br  0.69346965  0.47273111  0.00422376     0.00500
Br5020     Br  0.75805027  0.53839990  0.02457836    -0.03900
Br5021     Br  0.78815761  0.53522419  0.95091788     0.00600
Br5022     Br  0.77029827  0.47750577  0.02359362    -0.03200
Br5023     Br  0.73445856  0.47330352  0.98137948    -0.04100
Br5024     Br  0.71454363  0.54284965  0.04210890    -0.00100
C5025       C  0.86320208  0.55082801  0.95769929     0.01300
C5026       C  0.87766846  0.55834762  0.94619778     0.04200
C5027       C  0.88652784  0.57536638  0.95135531    -0.11900
C5028       C  0.88099444  0.58477371  0.96804595     0.23500
C5029       C  0.86604748  0.57762621  0.97914494    -0.12500
C5030       C  0.85697108  0.56078205  0.97380109     0.04900
C5031       C  0.89105962  0.60215480  0.97381507     0.27300
C5032       C  0.90689997  0.60094043  0.98579477    -0.13200
C5033       C  0.91741181  0.61727049  0.98999986     0.05400
C5034       C  0.91259628  0.63471766  0.98149364    -0.09100
C5035       C  0.89641306  0.63594095  0.96984037     0.06200
C5036       C  0.88545380  0.61972643  0.96637657    -0.13500
Br5037     Br  0.85854192  0.59056589  0.00196862    -0.05600
Br5038     Br  0.88602855  0.54489973  0.92395011     0.00100
Br5039     Br  0.93780625  0.61572199  0.00813825     0.00500
Br5040     Br  0.86284420  0.62133762  0.95118622    -0.03900
Br5041     Br  0.83574733  0.55138837  0.98825638     0.00600
Br5042     Br  0.90677991  0.58551545  0.93602152    -0.03200
Br5043     Br  0.91436354  0.57677314  0.99609974    -0.04100
Br5044     Br  0.88980751  0.65937655  0.95746307    -0.00100
C5045       C  0.08450265  0.33016432  0.18571987     0.01300
C5046       C  0.09489783  0.34264067  0.17423337     0.04200
C5047       C  0.09097778  0.34383908  0.15486622    -0.11900
C5048       C  0.07532420  0.33406276  0.14730637     0.23500
C5049       C  0.06392085  0.32272049  0.15915701    -0.12500
C5050       C  0.06871849  0.32054730  0.17834434     0.04900
C5051       C  0.07025714  0.33711927  0.12725309     0.27300
C5052       C  0.06324300  0.35490418  0.12166458    -0.13200
C5053       C  0.06171726  0.35933986  0.10238617     0.05400
C5054       C  0.06588234  0.34546350  0.08860098    -0.09100
C5055       C  0.07111441  0.32704995  0.09431483     0.06200
C5056       C  0.07395639  0.32308123  0.11359412    -0.13500
Br5057     Br  0.04165959  0.31046351  0.14920780    -0.05600
Br5058     Br  0.11354942  0.35915873  0.18526162     0.00100
Br5059     Br  0.05549956  0.38499210  0.09522401     0.00500
Br5060     Br  0.08364737  0.29870631  0.12119390    -0.03900
Br5061     Br  0.05295915  0.30560288  0.19483037     0.00600
Br5062     Br  0.10723681  0.35877601  0.13867613    -0.03200
Br5063     Br  0.05645647  0.37348011  0.14057901    -0.04100
Br5064     Br  0.07353628  0.30697821  0.07592589    -0.00100
C5065       C  0.97862895  0.22827392  0.02478039     0.01300
C5066       C  0.97614329  0.24144151  0.00991278     0.04200
C5067       C  0.98805397  0.25734822  0.00860937    -0.11900
C5068       C  0.00268429  0.25992406  0.02183773     0.23500
C5069       C  0.00577551  0.24639713  0.03608255    -0.12500
C5070       C  0.99343205  0.23096417  0.03799321     0.04900
C5071       C  0.01339255  0.27788726  0.02235824     0.27300
C5072       C  0.02947759  0.28054389  0.01089992    -0.13200
C5073       C  0.03975791  0.29758328  0.01195804     0.05400
C5074       C  0.03455974  0.31156133  0.02534808    -0.09100
C5075       C  0.01896678  0.30824924  0.03752904     0.06200
C5076       C  0.00794322  0.29190126  0.03538153    -0.13500
Br5077     Br  0.02674776  0.24945904  0.05332858    -0.05600
Br5078     Br  0.95659787  0.23788899  0.99117849     0.00100
Br5079     Br  0.06056094  0.30163608  0.99466400     0.00500
Br5080     Br  0.98536883  0.28846595  0.05052298    -0.03900
Br5081     Br  0.99579682  0.21498183  0.06009679     0.00600
Br5082     Br  0.98416798  0.27593728  0.98899833    -0.03200
Br5083     Br  0.03756834  0.26054585  0.99416418    -0.04100
Br5084     Br  0.01366138  0.32478920  0.05868644    -0.00100
C5085       C  0.14580190  0.49264637  0.05268216     0.01300
C5086       C  0.13548093  0.48604763  0.06850750     0.04200
C5087       C  0.12573092  0.46871902  0.06749568    -0.11900
C5088       C  0.12646209  0.45787166  0.05079976     0.23500
C5089       C  0.13763457  0.46392530  0.03541874    -0.12500
C5090       C  0.14729208  0.48127985  0.03635211     0.04900
C5091       C  0.11485418  0.44050237  0.04902034     0.27300
C5092       C  0.12158210  0.42318841  0.05612619    -0.13200
C5093       C  0.11075298  0.40662577  0.05396512     0.05400
C5094       C  0.09334927  0.40721067  0.04406220    -0.09100
C5095       C  0.08676187  0.42467077  0.03677433     0.06200
C5096       C  0.09731243  0.44129112  0.03964576    -0.13500
Br5097     Br  0.13910353  0.44865627  0.01282655    -0.05600
Br5098     Br  0.13344842  0.50124341  0.09112536     0.00100
Br5099     Br  0.11973296  0.38341086  0.06526304     0.00500
Br5100     Br  0.08792239  0.46528067  0.03052163    -0.03900
Br5101     Br  0.16272725  0.48942327  0.01529027     0.00600
Br5102     Br  0.11055645  0.46020786  0.08858874    -0.03200
Br5103     Br  0.14586229  0.42226264  0.06857473    -0.04100
Br5104     Br  0.06415607  0.42595035  0.02143689    -0.00100
C5105       C  0.18095103  0.44004271  0.80993462     0.01300
C5106       C  0.16772804  0.42523093  0.81197646     0.04200
C5107       C  0.14878505  0.42946521  0.81613469    -0.11900
C5108       C  0.14310844  0.44844098  0.81804849     0.23500
C5109       C  0.15606927  0.46324316  0.81505645    -0.12500
C5110       C  0.17503592  0.45904190  0.81097457     0.04900
C5111       C  0.12371573  0.45272688  0.82424152     0.27300
C5112       C  0.10954171  0.45625177  0.81075199    -0.13200
C5113       C  0.09084601  0.45916502  0.81672230     0.05400
C5114       C  0.08645109  0.45859561  0.83614556    -0.09100
C5115       C  0.10077685  0.45597532  0.84969553     0.06200
C5116       C  0.11942799  0.45280297  0.84371089    -0.13500
Br5117     Br  0.14785272  0.48918705  0.81715499    -0.05600
Br5118     Br  0.17564622  0.39913320  0.81032336     0.00100
Br5119     Br  0.07138800  0.46458258  0.79838578     0.00500
Br5120     Br  0.13907413  0.44808812  0.86207011    -0.03900
Br5121     Br  0.19285216  0.47927334  0.80649754     0.00600
Br5122     Br  0.13068828  0.40935238  0.82010454    -0.03200
Br5123     Br  0.11577706  0.45688664  0.78417208    -0.04100
Br5124     Br  0.09481113  0.45633424  0.87637385    -0.00100
C5125       C  0.02570884  0.48893972  0.80159540     0.01300
C5126       C  0.01569808  0.47957405  0.78689585     0.04200
C5127       C  0.01814433  0.48512997  0.76794284    -0.11900
C5128       C  0.02872911  0.50136117  0.76352542     0.23500
C5129       C  0.03776724  0.51151427  0.77807216    -0.12500
C5130       C  0.03696319  0.50495943  0.79691194     0.04900
C5131       C  0.02950208  0.50826975  0.74366132     0.27300
C5132       C  0.04583296  0.50546197  0.73248395    -0.13200
C5133       C  0.04683776  0.51315541  0.71408676     0.05400
C5134       C  0.03137730  0.52343509  0.70673851    -0.09100
C5135       C  0.01466513  0.52524668  0.71757517     0.06200
C5136       C  0.01377421  0.51780123  0.73599612    -0.13500
Br5137     Br  0.05155935  0.53434012  0.77200100    -0.05600
Br5138     Br  0.99777071  0.45955359  0.79220563     0.00100
Br5139     Br  0.06988182  0.51075026  0.69959264     0.00500
Br5140     Br  0.99112075  0.52110075  0.75099758    -0.03900
Br5141     Br  0.05279854  0.51736636  0.81544398     0.00600
Br5142     Br  0.00750587  0.47013166  0.74774204    -0.03200
Br5143     Br  0.06690980  0.49137581  0.74261411    -0.04100
Br5144     Br  0.99283702  0.53794912  0.70717305    -0.00100
C5145       C  0.89447753  0.48621590  0.92133603     0.01300
C5146       C  0.91220266  0.49319162  0.92734603     0.04200
C5147       C  0.92852737  0.48930874  0.91663866    -0.11900
C5148       C  0.92717590  0.47856050  0.89992421     0.23500
C5149       C  0.90956968  0.47157639  0.89391083    -0.12500
C5150       C  0.89326277  0.47515950  0.90471278     0.04900
C5151       C  0.94439989  0.47460120  0.88874455     0.27300
C5152       C  0.95102105  0.48807195  0.87565023    -0.13200
C5153       C  0.96856630  0.48539441  0.86667665     0.05400
C5154       C  0.97917430  0.46889593  0.87031402    -0.09100
C5155       C  0.97199473  0.45490048  0.88263527     0.06200
C5156       C  0.95467393  0.45785487  0.89197525    -0.13500
Br5157     Br  0.90788948  0.45731420  0.87069361    -0.05600
Br5158     Br  0.91423094  0.50874807  0.94971421     0.00100
Br5159     Br  0.97813243  0.50444203  0.84956328     0.00500
Br5160     Br  0.94531094  0.43939842  0.90983267    -0.03900
Br5161     Br  0.86951162  0.46393790  0.89712826     0.00600
Br5162     Br  0.95282127  0.49893818  0.92460638    -0.03200
Br5163     Br  0.93610141  0.51031495  0.87037166    -0.04100
Br5164     Br  0.98651834  0.43238892  0.88800603    -0.00100
C5165       C  0.06285290  0.37748842  0.98008223     0.01300
C5166       C  0.07638218  0.39134284  0.97525252     0.04200
C5167       C  0.07365267  0.40267346  0.95916052    -0.11900
C5168       C  0.05744431  0.40012438  0.94790062     0.23500
C5169       C  0.04444590  0.38560212  0.95216679    -0.12500
C5170       C  0.04729853  0.37412975  0.96814428     0.04900
C5171       C  0.05410594  0.41267488  0.93150659     0.27300
C5172       C  0.04500138  0.43021899  0.93401441    -0.13200
C5173       C  0.04116395  0.44180899  0.91827045     0.05400
C5174       C  0.04633703  0.43572450  0.89991858    -0.09100
C5175       C  0.05636304  0.41848900  0.89767674     0.06200
C5176       C  0.06011368  0.40700643  0.91343537    -0.13500
Br5177     Br  0.02228106  0.38210532  0.93666002    -0.05600
Br5178     Br  0.09801208  0.39571370  0.99129403     0.00100
Br5179     Br  0.02811978  0.46550073  0.92206301     0.00500
Br5180     Br  0.07348799  0.38335500  0.91041518    -0.03900
Br5181     Br  0.03005709  0.35369531  0.97377305     0.00600
Br5182     Br  0.09155060  0.42236734  0.95299677    -0.03200
Br5183     Br  0.03754481  0.43809155  0.95910406    -0.04100
Br5184     Br  0.06589265  0.41066298  0.87321563    -0.00100
loop_ 
_geom_bond_atom_site_label_1 
_geom_bond_atom_site_label_2 
_geom_bond_distance 
_geom_bond_site_symmetry_2 
_ccdc_geom_bond_type 
O1           Ni9   1.928       .  S
O1           C11   1.284       .  A
O2           Ni9   1.930       .  S
O2           C12   1.284       .  A
O3           Ni9   1.905       .  S
O3           C13   1.278   1_455  A
O4           Ni9   1.902       .  S
O4           C14   1.277       .  A
O5          Ni10   1.910       .  S
O5           C14   1.280       .  A
O6          Ni10   1.917       .  S
O6           C13   1.281   1_455  A
O7          Ni10   1.899       .  S
O7           C12   1.277       .  A
O8          Ni10   1.899       .  S
O8           C11   1.277       .  A
Ni9         Ni10   2.387       .  S
C11        C5174   1.481       .  S
C12        C5125   1.495       .  S
C13        C5154   1.469       .  S
C14        C5114   1.457       .  S
O15         Ni23   1.918       .  S
O15          C25   1.281       .  A
O16         Ni23   1.910       .  S
O16          C26   1.280       .  A
O17         Ni23   1.903       .  S
O17          C27   1.277       .  A
O18         Ni23   1.901       .  S
O18          C28   1.278   1_554  A
O19         Ni24   1.921       .  S
O19          C28   1.281   1_554  A
O20         Ni24   1.917       .  S
O20          C27   1.282       .  A
O21         Ni24   1.916       .  S
O21          C26   1.280       .  A
O22         Ni24   1.912       .  S
O22          C25   1.280       .  A
Ni23        Ni24   2.388       .  S
C25        C5094   1.483       .  S
C26        C5074   1.482       .  S
C27        C5054   1.474       .  S
C28        C5165   1.466       .  S
O29         Ni37   1.917       .  S
O29          C39   1.281       .  A
O30         Ni37   1.913       .  S
O30          C40   1.281       .  A
O31         Ni37   1.905       .  S
O31          C41   1.278       .  A
O32         Ni37   1.903       .  S
O32          C42   1.278       .  A
O33         Ni38   1.922       .  S
O33          C42   1.281       .  A
O34         Ni38   1.915       .  S
O34          C41   1.281       .  A
O35         Ni38   1.909       .  S
O35          C40   1.279       .  A
O36         Ni38   1.906       .  S
O36          C39   1.279       .  A
Ni37        Ni38   2.389       .  S
C39        C5145   1.474       .  S
C40        C5005   1.484       .  S
C41        C4985   1.473       .  S
C42        C5025   1.467       .  S
O43         Ni51   1.920       .  S
O43          C53   1.282       .  A
O44         Ni51   1.921       .  S
O44          C54   1.282       .  A
O45         Ni51   1.908       .  S
O45          C55   1.279       .  A
O46         Ni51   1.911       .  S
O46          C56   1.279       .  A
O47         Ni52   1.918       .  S
O47          C56   1.282       .  A
O48         Ni52   1.921       .  S
O48          C55   1.282       .  A
O49         Ni52   1.903       .  S
O49          C54   1.279       .  A
O50         Ni52   1.906       .  S
O50          C53   1.278       .  A
Ni51        Ni52   2.390       .  S
C53        C4965   1.475       .  S
C54        C4954   1.479       .  S
C55        C5085   1.475       .  S
C56        C4925   1.470       .  S
O57         Ni65   1.920       .  S
O57          C67   1.281       .  A
O58         Ni65   1.922       .  S
O58          C68   1.281       .  A
O59         Ni65   1.919       .  S
O59          C69   1.281       .  A
O60         Ni65   1.915   1_455  S
O60          C70   1.281       .  A
O61         Ni66   1.915   1_455  S
O61          C70   1.279       .  A
O62         Ni66   1.912       .  S
O62          C69   1.280       .  A
O63         Ni66   1.914       .  S
O63          C68   1.281       .  A
O64         Ni66   1.911       .  S
O64          C67   1.280       .  A
Ni65        Ni66   2.387       .  S
C67        C4905   1.480       .  S
C68        C4894   1.496       .  S
C69        C4865   1.474       .  S
C70        C4974   1.470       .  S
O71         Ni79   1.913       .  S
O71          C81   1.281       .  A
O72         Ni79   1.914       .  S
O72          C82   1.280       .  A
O73         Ni79   1.906   1_554  S
O73          C83   1.279       .  A
O74         Ni79   1.908       .  S
O74          C84   1.279       .  A
O75         Ni80   1.918       .  S
O75          C84   1.281       .  A
O76         Ni80   1.917   1_554  S
O76          C83   1.280       .  A
O77         Ni80   1.913       .  S
O77          C82   1.281       .  A
O78         Ni80   1.913       .  S
O78          C81   1.280       .  A
Ni79        Ni80   2.391       .  S
C81        C5034   1.475       .  S
C82        C4845   1.476   1_556  S
C83        C4914   1.471       .  S
C84        C4825   1.470       .  S
O85         Ni93   1.912       .  S
O85          C95   1.281       .  A
O86         Ni93   1.910       .  S
O86          C96   1.280       .  A
O87         Ni93   1.901       .  S
O87          C97   1.278       .  A
O88         Ni93   1.896       .  S
O88          C98   1.278       .  A
O89         Ni94   1.913       .  S
O89          C98   1.280       .  A
O90         Ni94   1.916       .  S
O90          C97   1.281       .  A
O91         Ni94   1.913       .  S
O91          C96   1.281       .  A
O92         Ni94   1.912       .  S
O92          C95   1.280       .  A
Ni93        Ni94   2.391       .  S
C95        C4814   1.480       .  S
C96        C4765   1.476       .  S
C97        C4754   1.467       .  S
C98        C4794   1.461       .  S
O99        Ni107   1.909       .  S
O99         C109   1.280       .  A
O100       Ni107   1.915       .  S
O100        C110   1.280       .  A
O101       Ni107   1.916       .  S
O101        C111   1.282       .  A
O102       Ni107   1.917       .  S
O102        C112   1.280       .  A
O103       Ni108   1.923       .  S
O103        C112   1.282       .  A
O104       Ni108   1.925       .  S
O104        C111   1.282       .  A
O105       Ni108   1.902       .  S
O105        C110   1.279       .  A
O106       Ni108   1.902       .  S
O106        C109   1.278       .  A
Ni107      Ni108   2.387       .  S
C109       C4785   1.473       .  S
C110       C4705   1.477       .  S
C111       C4725   1.484       .  S
C112       C4685   1.475       .  S
O113       Ni121   1.939       .  S
O113        C123   1.287       .  A
O114       Ni121   1.935       .  S
O114        C124   1.286       .  A
O115       Ni121   1.892       .  S
O115        C125   1.275       .  A
O116       Ni121   1.898   1_455  S
O116        C126   1.276       .  A
O117       Ni122   1.927   1_455  S
O117        C126   1.283       .  A
O118       Ni122   1.925       .  S
O118        C125   1.283       .  A
O119       Ni122   1.910       .  S
O119        C124   1.279       .  A
O120       Ni122   1.907       .  S
O120        C123   1.278       .  A
Ni121      Ni122   2.387       .  S
C123       C4734   1.495       .  S
C124       C4885   1.491       .  S
C125       C4654   1.468       .  S
C126       C4665   1.469       .  S
O127       Ni135   1.921       .  S
O127        C137   1.282       .  A
O128       Ni135   1.928       .  S
O128        C138   1.283       .  A
O129       Ni135   1.904       .  S
O129        C139   1.278       .  A
O130       Ni135   1.909       .  S
O130        C140   1.277       .  A
O131       Ni136   1.926       .  S
O131        C140   1.282       .  A
O132       Ni136   1.926       .  S
O132        C139   1.283       .  A
O133       Ni136   1.913       .  S
O133        C138   1.280       .  A
O134       Ni136   1.911       .  S
O134        C137   1.280       .  A
Ni135      Ni136   2.380       .  S
C137       C4674   1.481       .  S
C138       C4605   1.495       .  S
C139       C4634   1.474       .  S
C140       C4585   1.510       .  S
O141       Ni149   1.940       .  S
O141        C151   1.286       .  A
O142       Ni149   1.936       .  S
O142        C152   1.285       .  A
O143       Ni149   1.908       .  S
O143        C153   1.278       .  A
O144       Ni149   1.904       .  S
O144        C154   1.277       .  A
O145       Ni150   1.920       .  S
O145        C154   1.283       .  A
O146       Ni150   1.921       .  S
O146        C153   1.283       .  A
O147       Ni150   1.901       .  S
O147        C152   1.277       .  A
O148       Ni150   1.903       .  S
O148        C151   1.277       .  A
Ni149      Ni150   2.390       .  S
C151       C4565   1.483       .  S
C152       C5134   1.479       .  S
C153       C4805   1.474   1_455  S
C154       C4554   1.474       .  S
O155       Ni163   1.918       .  S
O155        C165   1.281       .  A
O156       Ni163   1.922       .  S
O156        C166   1.279       .  A
O157       Ni163   1.914       .  S
O157        C167   1.280       .  A
O158       Ni163   1.922       .  S
O158        C168   1.282       .  A
O159       Ni164   1.925       .  S
O159        C168   1.282       .  A
O160       Ni164   1.929       .  S
O160        C167   1.284       .  A
O161       Ni164   1.920       .  S
O161        C166   1.284       .  A
O162       Ni164   1.908       .  S
O162        C165   1.280       .  A
Ni163      Ni164   2.385       .  S
C165       C4625   1.478       .  S
C166       C4534   1.498       .  S
C167       C4505   1.487       .  S
C168       C4574   1.483       .  S
O169       Ni177   1.924       .  S
O169        C179   1.283       .  A
O170       Ni177   1.928       .  S
O170        C180   1.283       .  A
O171       Ni177   1.910       .  S
O171        C181   1.278       .  A
O172       Ni177   1.904       .  S
O172        C182   1.279       .  A
O173       Ni178   1.922       .  S
O173        C182   1.282       .  A
O174       Ni178   1.920       .  S
O174        C181   1.282       .  A
O175       Ni178   1.903       .  S
O175        C180   1.278       .  A
O176       Ni178   1.903       .  S
O176        C179   1.277       .  A
Ni177      Ni178   2.386       .  S
C179       C4485   1.482       .  S
C180       C4445   1.492       .  S
C181       C4425   1.472       .  S
C182       C4465   1.474       .  S
O183       Ni191   1.923       .  S
O183        C193   1.283       .  A
O184       Ni191   1.922       .  S
O184        C194   1.283       .  A
O185       Ni191   1.906       .  S
O185        C195   1.278       .  A
O186       Ni191   1.902       .  S
O186        C196   1.277       .  A
O187       Ni192   1.923       .  S
O187        C196   1.283       .  A
O188       Ni192   1.927       .  S
O188        C195   1.283       .  A
O189       Ni192   1.906       .  S
O189        C194   1.279       .  A
O190       Ni192   1.903       .  S
O190        C193   1.278       .  A
Ni191      Ni192   2.389       .  S
C193       C4474   1.480       .  S
C194       C4945   1.486       .  S
C195       C4414   1.473       .  S
C196       C4385   1.470       .  S
O197       Ni205   1.912       .  S
O197        C207   1.279       .  A
O198       Ni205   1.915       .  S
O198        C208   1.281   1_556  A
O199       Ni205   1.918       .  S
O199        C209   1.280       .  A
O200       Ni205   1.926   1_554  S
O200        C210   1.283       .  A
O201       Ni206   1.917   1_554  S
O201        C210   1.279       .  A
O202       Ni206   1.920       .  S
O202        C209   1.282       .  A
O203       Ni206   1.918   1_554  S
O203        C208   1.280       .  A
O204       Ni206   1.912       .  S
O204        C207   1.281       .  A
Ni205      Ni206   2.386       .  S
C207       C4405   1.484       .  S
C208       C4354   1.493       .  S
C209       C4334   1.475       .  S
C210       C4365   1.477       .  S
O211       Ni219   1.922       .  S
O211        C221   1.281       .  A
O212       Ni219   1.915       .  S
O212        C222   1.281       .  A
O213       Ni219   1.905       .  S
O213        C223   1.280       .  A
O214       Ni219   1.907       .  S
O214        C224   1.278       .  A
O215       Ni220   1.905       .  S
O215        C224   1.280       .  A
O216       Ni220   1.915       .  S
O216        C223   1.279       .  A
O217       Ni220   1.920       .  S
O217        C222   1.282       .  A
O218       Ni220   1.916       .  S
O218        C221   1.281       .  A
Ni219      Ni220   2.390       .  S
C221       C4374   1.476       .  S
C222       C4285   1.482       .  S
C223       C4305   1.468       .  S
C224       C4265   1.475       .  S
O225       Ni233   1.922       .  S
O225        C235   1.283       .  A
O226       Ni233   1.923       .  S
O226        C236   1.282       .  A
O227       Ni233   1.902       .  S
O227        C237   1.277   1_554  A
O228       Ni233   1.909       .  S
O228        C238   1.278       .  A
O229       Ni234   1.919       .  S
O229        C238   1.281       .  A
O230       Ni234   1.921       .  S
O230        C237   1.282   1_554  A
O231       Ni234   1.909       .  S
O231        C236   1.280       .  A
O232       Ni234   1.912       .  S
O232        C235   1.279       .  A
Ni233      Ni234   2.388       .  S
C235       C4245   1.481       .  S
C236       C4234   1.493       .  S
C237       C4494   1.470       .  S
C238       C4214   1.468       .  S
O239       Ni247   1.920       .  S
O239        C249   1.282       .  A
O240       Ni247   1.919       .  S
O240        C250   1.282       .  A
O241       Ni247   1.904       .  S
O241        C251   1.278       .  A
O242       Ni247   1.913       .  S
O242        C252   1.280       .  A
O243       Ni248   1.920       .  S
O243        C252   1.281       .  A
O244       Ni248   1.912       .  S
O244        C251   1.281       .  A
O245       Ni248   1.904       .  S
O245        C250   1.279       .  A
O246       Ni248   1.902       .  S
O246        C249   1.278       .  A
Ni247      Ni248   2.390       .  S
C249       C4314   1.478       .  S
C250       C5014   1.478       .  S
C251       C4185   1.466       .  S
C252       C4254   1.472       .  S
O253       Ni261   1.917       .  S
O253        C263   1.281       .  A
O254       Ni261   1.918       .  S
O254        C264   1.280       .  A
O255       Ni261   1.910       .  S
O255        C265   1.279       .  A
O256       Ni261   1.908       .  S
O256        C266   1.279       .  A
O257       Ni262   1.922       .  S
O257        C266   1.282       .  A
O258       Ni262   1.917       .  S
O258        C265   1.280       .  A
O259       Ni262   1.922       .  S
O259        C264   1.282       .  A
O260       Ni262   1.922       .  S
O260        C263   1.282       .  A
Ni261      Ni262   2.387       .  S
C263       C4174   1.486       .  S
C264       C4125   1.497       .  S
C265       C4105   1.467       .  S
C266       C4145   1.473       .  S
O267       Ni275   1.922       .  S
O267        C277   1.283       .  A
O268       Ni275   1.922       .  S
O268        C278   1.282       .  A
O269       Ni275   1.897       .  S
O269        C279   1.277       .  A
O270       Ni275   1.900       .  S
O270        C280   1.277       .  A
O271       Ni276   1.913       .  S
O271        C280   1.281       .  A
O272       Ni276   1.917       .  S
O272        C279   1.280       .  A
O273       Ni276   1.914       .  S
O273        C278   1.281       .  A
O274       Ni276   1.910       .  S
O274        C277   1.280       .  A
Ni275      Ni276   2.390       .  S
C277       C4154   1.481       .  S
C278       C4294   1.487       .  S
C279       C4085   1.464       .  S
C280       C4065   1.463       .  S
O281       Ni289   1.914       .  S
O281        C291   1.281       .  A
O282       Ni289   1.914       .  S
O282        C292   1.280       .  A
O283       Ni289   1.914       .  S
O283        C293   1.279       .  A
O284       Ni289   1.911       .  S
O284        C294   1.279       .  A
O285       Ni290   1.914       .  S
O285        C294   1.280       .  A
O286       Ni290   1.909       .  S
O286        C293   1.280       .  A
O287       Ni290   1.904       .  S
O287        C292   1.279       .  A
O288       Ni290   1.905       .  S
O288        C291   1.279       .  A
Ni289      Ni290   2.390       .  S
C291       C4094   1.474       .  S
C292       C4774   1.482       .  S
C293       C4025   1.465       .  S
C294       C4054   1.466       .  S
O295       Ni303   1.921       .  S
O295        C305   1.283       .  A
O296       Ni303   1.927       .  S
O296        C306   1.284       .  A
O297       Ni303   1.908       .  S
O297        C307   1.279       .  A
O298       Ni303   1.903       .  S
O298        C308   1.276       .  A
O299       Ni304   1.941       .  S
O299        C308   1.286       .  A
O300       Ni304   1.932       .  S
O300        C307   1.284       .  A
O301       Ni304   1.908       .  S
O301        C306   1.277       .  A
O302       Ni304   1.902       .  S
O302        C305   1.277       .  A
Ni303      Ni304   2.384       .  S
C305       C4045   1.476       .  S
C306       C3985   1.497       .  S
C307       C4005   1.489       .  S
C308       C3965   1.481       .  S
O309       Ni317   1.931       .  S
O309        C319   1.284       .  A
O310       Ni317   1.927       .  S
O310        C320   1.283       .  A
O311       Ni317   1.903       .  S
O311        C321   1.278       .  A
O312       Ni317   1.909       .  S
O312        C322   1.279       .  A
O313       Ni318   1.921       .  S
O313        C322   1.282       .  A
O314       Ni318   1.920       .  S
O314        C321   1.282       .  A
O315       Ni318   1.904       .  S
O315        C320   1.278       .  A
O316       Ni318   1.905       .  S
O316        C319   1.278       .  A
Ni317      Ni318   2.390       .  S
C319       C4014   1.483       .  S
C320       C4454   1.477       .  S
C321       C3934   1.472       .  S
C322       C3954   1.474       .  S
O323       Ni331   1.920       .  S
O323        C333   1.283       .  A
O324       Ni331   1.927       .  S
O324        C334   1.283       .  A
O325       Ni331   1.911       .  S
O325        C335   1.280       .  A
O326       Ni331   1.908       .  S
O326        C336   1.278       .  A
O327       Ni332   1.915       .  S
O327        C336   1.281       .  A
O328       Ni332   1.920       .  S
O328        C335   1.281       .  A
O329       Ni332   1.915       .  S
O329        C334   1.281       .  A
O330       Ni332   1.912       .  S
O330        C333   1.279       .  A
Ni331      Ni332   2.388       .  S
C333       C3945   1.483       .  S
C334       C4614   1.490       .  S
C335       C4165   1.476       .  S
C336       C3905   1.466       .  S
O337       Ni345   1.923       .  S
O337        C347   1.282       .  A
O338       Ni345   1.918       .  S
O338        C348   1.281       .  A
O339       Ni345   1.904       .  S
O339        C349   1.277       .  A
O340       Ni345   1.904       .  S
O340        C350   1.276       .  A
O341       Ni346   1.909       .  S
O341        C350   1.278       .  A
O342       Ni346   1.907       .  S
O342        C349   1.279       .  A
O343       Ni346   1.916       .  S
O343        C348   1.281       .  A
O344       Ni346   1.912       .  S
O344        C347   1.280       .  A
Ni345      Ni346   2.382       .  S
C347       C3885   1.490       .  S
C348       C4134   1.488       .  S
C349       C3854   1.458       .  S
C350       C3874   1.495       .  S
O351       Ni359   1.903       .  S
O351        C361   1.279       .  A
O352       Ni359   1.901       .  S
O352        C362   1.279       .  A
O353       Ni359   1.909       .  S
O353        C363   1.279       .  A
O354       Ni359   1.913       .  S
O354        C364   1.279       .  A
O355       Ni360   1.925       .  S
O355        C364   1.282       .  A
O356       Ni360   1.926       .  S
O356        C363   1.283       .  A
O357       Ni360   1.906       .  S
O357        C362   1.278       .  A
O358       Ni360   1.904       .  S
O358        C361   1.278       .  A
Ni359      Ni360   2.391       .  S
C361       C3865   1.472       .  S
C362       C3805   1.464       .  S
C363       C3834   1.477       .  S
C364       C3785   1.473       .  S
O365       Ni373   1.915       .  S
O365        C375   1.282       .  A
O366       Ni373   1.929       .  S
O366        C376   1.282       .  A
O367       Ni373   1.914       .  S
O367        C377   1.280       .  A
O368       Ni373   1.908       .  S
O368        C378   1.278       .  A
O369       Ni374   1.919       .  S
O369        C378   1.282       .  A
O370       Ni374   1.927       .  S
O370        C377   1.283       .  A
O371       Ni374   1.906       .  S
O371        C376   1.278       .  A
O372       Ni374   1.907       .  S
O372        C375   1.277       .  A
Ni373      Ni374   2.389       .  S
C375       C3765   1.468       .  S
C376       C3994   1.472       .  S
C377       C3745   1.480       .  S
C378       C3725   1.487       .  S
O379       Ni387   1.940       .  S
O379        C389   1.286       .  A
O380       Ni387   1.921   1_545  S
O380        C390   1.282       .  A
O381       Ni387   1.894       .  S
O381        C391   1.274       .  A
O382       Ni387   1.888   1_545  S
O382        C392   1.273       .  A
O383       Ni388   1.932       .  S
O383        C392   1.285       .  A
O384       Ni388   1.927   1_565  S
O384        C391   1.285       .  A
O385       Ni388   1.918       .  S
O385        C390   1.280       .  A
O386       Ni388   1.912   1_565  S
O386        C389   1.277       .  A
Ni387      Ni388   2.382   1_565  S
C389       C3825   1.481       .  S
C390       C3714   1.496       .  S
C391       C3685   1.481       .  S
C392       C3774   1.489       .  S
O393       Ni401   1.924       .  S
O393        C403   1.283       .  A
O394       Ni401   1.918       .  S
O394        C404   1.281       .  A
O395       Ni401   1.906       .  S
O395        C405   1.278       .  A
O396       Ni401   1.902       .  S
O396        C406   1.279       .  A
O397       Ni402   1.916       .  S
O397        C406   1.280       .  A
O398       Ni402   1.907       .  S
O398        C405   1.280       .  A
O399       Ni402   1.918       .  S
O399        C404   1.282       .  A
O400       Ni402   1.922       .  S
O400        C403   1.281       .  A
Ni401      Ni402   2.390       .  S
C403       C3754   1.482       .  S
C404       C3645   1.489       .  S
C405       C3625   1.466       .  S
C406       C3665   1.465       .  S
O407       Ni415   1.911       .  S
O407        C417   1.280       .  A
O408       Ni415   1.914       .  S
O408        C418   1.281       .  A
O409       Ni415   1.906       .  S
O409        C419   1.279       .  A
O410       Ni415   1.904       .  S
O410        C420   1.278       .  A
O411       Ni416   1.916       .  S
O411        C420   1.281       .  A
O412       Ni416   1.918       .  S
O412        C419   1.281       .  A
O413       Ni416   1.911       .  S
O413        C418   1.280       .  A
O414       Ni416   1.907       .  S
O414        C417   1.279       .  A
Ni415      Ni416   2.391       .  S
C417       C3674   1.476       .  S
C418       C3605   1.478       .  S
C419       C3894   1.470   1_545  S
C420       C3594   1.466       .  S
O421       Ni429   1.923       .  S
O421        C431   1.282       .  A
O422       Ni429   1.921       .  S
O422        C432   1.281       .  A
O423       Ni429   1.908       .  S
O423        C433   1.279       .  A
O424       Ni429   1.904       .  S
O424        C434   1.275       .  A
O425       Ni430   1.927       .  S
O425        C434   1.283       .  A
O426       Ni430   1.928       .  S
O426        C433   1.283       .  A
O427       Ni430   1.913       .  S
O427        C432   1.280       .  A
O428       Ni430   1.905       .  S
O428        C431   1.278       .  A
Ni429      Ni430   2.380       .  S
C431       C3574   1.483       .  S
C432       C4225   1.482       .  S
C433       C3545   1.477   1_554  S
C434       C3525   1.506       .  S
O435       Ni443   1.915       .  S
O435        C445   1.281       .  A
O436       Ni443   1.914       .  S
O436        C446   1.280       .  A
O437       Ni443   1.902       .  S
O437        C447   1.278       .  A
O438       Ni443   1.900       .  S
O438        C448   1.278       .  A
O439       Ni444   1.919       .  S
O439        C448   1.281       .  A
O440       Ni444   1.913       .  S
O440        C447   1.281       .  A
O441       Ni444   1.911       .  S
O441        C446   1.280       .  A
O442       Ni444   1.916       .  S
O442        C445   1.280       .  A
Ni443      Ni444   2.392       .  S
C445       C3514   1.472       .  S
C446       C3485   1.476       .  S
C447       C3474   1.465       .  S
C448       C3565   1.473   1_545  S
O449       Ni457   1.936       .  S
O449        C459   1.285       .  A
O450       Ni457   1.925   1_545  S
O450        C460   1.283   1_545  A
O451       Ni457   1.906       .  S
O451        C461   1.279       .  A
O452       Ni457   1.910       .  S
O452        C462   1.278       .  A
O453       Ni458   1.921       .  S
O453        C462   1.282       .  A
O454       Ni458   1.916       .  S
O454        C461   1.281       .  A
O455       Ni458   1.920       .  S
O455        C460   1.281       .  A
O456       Ni458   1.914       .  S
O456        C459   1.280       .  A
Ni457      Ni458   2.381       .  S
C459       C3554   1.494       .  S
C460       C3654   1.496   1_565  S
C461       C3434   1.475       .  S
C462       C3454   1.497       .  S
O463       Ni471   1.911       .  S
O463        C473   1.281       .  A
O464       Ni471   1.913       .  S
O464        C474   1.280       .  A
O465       Ni471   1.910       .  S
O465        C475   1.279       .  A
O466       Ni471   1.908       .  S
O466        C476   1.279       .  A
O467       Ni472   1.918       .  S
O467        C476   1.282       .  A
O468       Ni472   1.921       .  S
O468        C475   1.281       .  A
O469       Ni472   1.905       .  S
O469        C474   1.278       .  A
O470       Ni472   1.911       .  S
O470        C473   1.279       .  A
Ni471      Ni472   2.392       .  S
C473       C3414   1.470       .  S
C474       C3814   1.465       .  S
C475       C3505   1.472       .  S
C476       C3385   1.478       .  S
O477       Ni485   1.919       .  S
O477        C487   1.281       .  A
O478       Ni485   1.919       .  S
O478        C488   1.281       .  A
O479       Ni485   1.902       .  S
O479        C489   1.278       .  A
O480       Ni485   1.904   1_554  S
O480        C490   1.279       .  A
O481       Ni486   1.919   1_554  S
O481        C490   1.282       .  A
O482       Ni486   1.915       .  S
O482        C489   1.281       .  A
O483       Ni486   1.911       .  S
O483        C488   1.279       .  A
O484       Ni486   1.905       .  S
O484        C487   1.278       .  A
Ni485      Ni486   2.391       .  S
C487       C3374   1.470       .  S
C488       C4345   1.469       .  S
C489       C3345   1.471       .  S
C490       C3405   1.478       .  S
O491       Ni499   1.912       .  S
O491        C501   1.280       .  A
O492       Ni499   1.909   1_545  S
O492        C502   1.281       .  A
O493       Ni499   1.904   1_545  S
O493        C503   1.278       .  A
O494       Ni499   1.909       .  S
O494        C504   1.278       .  A
O495       Ni500   1.928   1_565  S
O495        C504   1.283       .  A
O496       Ni500   1.927       .  S
O496        C503   1.283       .  A
O497       Ni500   1.914       .  S
O497        C502   1.279       .  A
O498       Ni500   1.905       .  S
O498        C501   1.279   1_545  A
Ni499      Ni500   2.389   1_565  S
C501       C3445   1.478       .  S
C502       C3334   1.474       .  S
C503       C3365   1.476       .  S
C504       C3314   1.473       .  S
O505       Ni513   1.902       .  S
O505        C515   1.277       .  A
O506       Ni513   1.904       .  S
O506        C516   1.279       .  A
O507       Ni513   1.897       .  S
O507        C517   1.277       .  A
O508       Ni513   1.902       .  S
O508        C518   1.277   1_554  A
O509       Ni514   1.920       .  S
O509        C518   1.281   1_554  A
O510       Ni514   1.919       .  S
O510        C517   1.281       .  A
O511       Ni514   1.918       .  S
O511        C516   1.282       .  A
O512       Ni514   1.913       .  S
O512        C515   1.279       .  A
Ni513      Ni514   2.385       .  S
C515       C3285   1.494       .  S
C516       C5065   1.479       .  S
C517       C3254   1.465       .  S
C518       C3265   1.465       .  S
O519       Ni527   1.919       .  S
O519        C529   1.282       .  A
O520       Ni527   1.924   1_545  S
O520        C530   1.283       .  A
O521       Ni527   1.896   1_545  S
O521        C531   1.275       .  A
O522       Ni527   1.898       .  S
O522        C532   1.277       .  A
O523       Ni528   1.916   1_565  S
O523        C532   1.282       .  A
O524       Ni528   1.920       .  S
O524        C531   1.282       .  A
O525       Ni528   1.908       .  S
O525        C530   1.277       .  A
O526       Ni528   1.920       .  S
O526        C529   1.281   1_545  A
Ni527      Ni528   2.386   1_565  S
C529       C3225   1.485       .  S
C530       C3325   1.469       .  S
C531       C3294   1.490       .  S
C532       C3214   1.468       .  S
O533       Ni541   1.925       .  S
O533        C543   1.283       .  A
O534       Ni541   1.922       .  S
O534        C544   1.282       .  A
O535       Ni541   1.905       .  S
O535        C545   1.278       .  A
O536       Ni541   1.908       .  S
O536        C546   1.279   1_455  A
O537       Ni542   1.924   1_655  S
O537        C546   1.283       .  A
O538       Ni542   1.921       .  S
O538        C545   1.282       .  A
O539       Ni542   1.906       .  S
O539        C544   1.278       .  A
O540       Ni542   1.901       .  S
O540        C543   1.278       .  A
Ni541      Ni542   2.389       .  S
C543       C3194   1.473       .  S
C544       C3174   1.472       .  S
C545       C3154   1.476       .  S
C546       C3234   1.484       .  S
O547       Ni555   1.922       .  S
O547        C557   1.282       .  A
O548       Ni555   1.915       .  S
O548        C558   1.280       .  A
O549       Ni555   1.910   1_554  S
O549        C559   1.278       .  A
O550       Ni555   1.913       .  S
O550        C560   1.279       .  A
O551       Ni556   1.924       .  S
O551        C560   1.282       .  A
O552       Ni556   1.930   1_554  S
O552        C559   1.284       .  A
O553       Ni556   1.918   1_554  S
O553        C558   1.280   1_554  A
O554       Ni556   1.913       .  S
O554        C557   1.280       .  A
Ni555      Ni556   2.378       .  S
C557       C3125   1.489       .  S
C558       C4854   1.502   1_556  S
C559       C3185   1.502       .  S
C560       C3114   1.475       .  S
O561       Ni569   1.911       .  S
O561        C571   1.280       .  A
O562       Ni569   1.915       .  S
O562        C572   1.281       .  A
O563       Ni569   1.917       .  S
O563        C573   1.280       .  A
O564       Ni569   1.918       .  S
O564        C574   1.281       .  A
O565       Ni570   1.919       .  S
O565        C574   1.282       .  A
O566       Ni570   1.915       .  S
O566        C573   1.280       .  A
O567       Ni570   1.908       .  S
O567        C572   1.279       .  A
O568       Ni570   1.908       .  S
O568        C571   1.279       .  A
Ni569      Ni570   2.388       .  S
C571       C3085   1.475       .  S
C572       C3494   1.483       .  S
C573       C3065   1.472       .  S
C574       C3134   1.481   1_545  S
O575       Ni583   1.916       .  S
O575        C585   1.281       .  A
O576       Ni583   1.914       .  S
O576        C586   1.280       .  A
O577       Ni583   1.907   1_455  S
O577        C587   1.279       .  A
O578       Ni583   1.903       .  S
O578        C588   1.278       .  A
O579       Ni584   1.916       .  S
O579        C588   1.281       .  A
O580       Ni584   1.915   1_455  S
O580        C587   1.280       .  A
O581       Ni584   1.917       .  S
O581        C586   1.281       .  A
O582       Ni584   1.914       .  S
O582        C585   1.280       .  A
Ni583      Ni584   2.391       .  S
C585       C3274   1.479       .  S
C586       C3045   1.473       .  S
C587       C3094   1.468       .  S
C588       C3025   1.472       .  S
O589       Ni597   1.918       .  S
O589        C599   1.282       .  A
O590       Ni597   1.935       .  S
O590        C600   1.284       .  A
O591       Ni597   1.904       .  S
O591        C601   1.277       .  A
O592       Ni597   1.908       .  S
O592        C602   1.279   1_455  A
O593       Ni598   1.922   1_655  S
O593        C602   1.282       .  A
O594       Ni598   1.928       .  S
O594        C601   1.283       .  A
O595       Ni598   1.913       .  S
O595        C600   1.280       .  A
O596       Ni598   1.922       .  S
O596        C599   1.281       .  A
Ni597      Ni598   2.380       .  S
C599       C3014   1.496       .  S
C600       C3165   1.487       .  S
C601       C2974   1.498       .  S
C602       C2985   1.487       .  S
O603       Ni611   1.915       .  S
O603        C613   1.281       .  A
O604       Ni611   1.913       .  S
O604        C614   1.280       .  A
O605       Ni611   1.913       .  S
O605        C615   1.280       .  A
O606       Ni611   1.907       .  S
O606        C616   1.278       .  A
O607       Ni612   1.924       .  S
O607        C616   1.282       .  A
O608       Ni612   1.929       .  S
O608        C615   1.283       .  A
O609       Ni612   1.917       .  S
O609        C614   1.281       .  A
O610       Ni612   1.908       .  S
O610        C613   1.277       .  A
Ni611      Ni612   2.379       .  S
C613       C2994   1.500       .  S
C614       C3614   1.487       .  S
C615       C2945   1.499   1_545  S
C616       C2934   1.473       .  S
O617       Ni625   1.921       .  S
O617        C627   1.282       .  A
O618       Ni625   1.923       .  S
O618        C628   1.282       .  A
O619       Ni625   1.905       .  S
O619        C629   1.278       .  A
O620       Ni625   1.906       .  S
O620        C630   1.279       .  A
O621       Ni626   1.923       .  S
O621        C630   1.282       .  A
O622       Ni626   1.916       .  S
O622        C629   1.282       .  A
O623       Ni626   1.917       .  S
O623        C628   1.280       .  A
O624       Ni626   1.918       .  S
O624        C627   1.281       .  A
Ni625      Ni626   2.388       .  S
C627       C2954   1.482       .  S
C628       C4525   1.475       .  S
C629       C2885   1.478       .  S
C630       C2905   1.479       .  S
O631       Ni639   1.922       .  S
O631        C641   1.282       .  A
O632       Ni639   1.917       .  S
O632        C642   1.281       .  A
O633       Ni639   1.913       .  S
O633        C643   1.280       .  A
O634       Ni639   1.914       .  S
O634        C644   1.280       .  A
O635       Ni640   1.917       .  S
O635        C644   1.281       .  A
O636       Ni640   1.923       .  S
O636        C643   1.282       .  A
O637       Ni640   1.908       .  S
O637        C642   1.280       .  A
O638       Ni640   1.919       .  S
O638        C641   1.281       .  A
Ni639      Ni640   2.388       .  S
C641       C2865   1.485       .  S
C642       C4714   1.482       .  S
C643       C3005   1.482       .  S
C644       C2854   1.471       .  S
O645       Ni653   1.922   1_565  S
O645        C655   1.282       .  A
O646       Ni653   1.924       .  S
O646        C656   1.283       .  A
O647       Ni653   1.912   1_565  S
O647        C657   1.279       .  A
O648       Ni653   1.915       .  S
O648        C658   1.280       .  A
O649       Ni654   1.927       .  S
O649        C658   1.282       .  A
O650       Ni654   1.919   1_565  S
O650        C657   1.282       .  A
O651       Ni654   1.914       .  S
O651        C656   1.280       .  A
O652       Ni654   1.907       .  S
O652        C655   1.279   1_545  A
Ni653      Ni654   2.389       .  S
C655       C2834   1.476       .  S
C656       C3705   1.489       .  S
C657       C2805   1.475       .  S
C658       C2874   1.479       .  S
O659       Ni667   1.915       .  S
O659        C669   1.282       .  A
O660       Ni667   1.914       .  S
O660        C670   1.281   1_655  A
O661       Ni667   1.911   1_455  S
O661        C671   1.279       .  A
O662       Ni667   1.906       .  S
O662        C672   1.279       .  A
O663       Ni668   1.920       .  S
O663        C672   1.281       .  A
O664       Ni668   1.918   1_455  S
O664        C671   1.280       .  A
O665       Ni668   1.915   1_455  S
O665        C670   1.280       .  A
O666       Ni668   1.915       .  S
O666        C669   1.280       .  A
Ni667      Ni668   2.387       .  S
C669       C2914   1.483       .  S
C670       C3054   1.494       .  S
C671       C2825   1.467       .  S
C672       C2785   1.467       .  S
O673       Ni681   1.929       .  S
O673        C683   1.284       .  A
O674       Ni681   1.927       .  S
O674        C684   1.284       .  A
O675       Ni681   1.902       .  S
O675        C685   1.277       .  A
O676       Ni681   1.904       .  S
O676        C686   1.278       .  A
O677       Ni682   1.922       .  S
O677        C686   1.282       .  A
O678       Ni682   1.921       .  S
O678        C685   1.283       .  A
O679       Ni682   1.907       .  S
O679        C684   1.279       .  A
O680       Ni682   1.905       .  S
O680        C683   1.278       .  A
Ni681      Ni682   2.386       .  S
C683       C2765   1.490       .  S
C684       C2725   1.487       .  S
C685       C4434   1.472       .  S
C686       C2754   1.468       .  S
O687       Ni695   1.923       .  S
O687        C697   1.283       .  A
O688       Ni695   1.920       .  S
O688        C698   1.282       .  A
O689       Ni695   1.901       .  S
O689        C699   1.278       .  A
O690       Ni695   1.899       .  S
O690        C700   1.277       .  A
O691       Ni696   1.921       .  S
O691        C700   1.282       .  A
O692       Ni696   1.919       .  S
O692        C699   1.281       .  A
O693       Ni696   1.905       .  S
O693        C698   1.278       .  A
O694       Ni696   1.904       .  S
O694        C697   1.278       .  A
Ni695      Ni696   2.392       .  S
C697       C2745   1.478       .  S
C698       C2685   1.471       .  S
C699       C2705   1.467       .  S
C700       C4834   1.470       .  S
O701       Ni709   1.916       .  S
O701        C711   1.281       .  A
O702       Ni709   1.911       .  S
O702        C712   1.280       .  A
O703       Ni709   1.905       .  S
O703        C713   1.278       .  A
O704       Ni709   1.902       .  S
O704        C714   1.278       .  A
O705       Ni710   1.917       .  S
O705        C714   1.280       .  A
O706       Ni710   1.910       .  S
O706        C713   1.280       .  A
O707       Ni710   1.913       .  S
O707        C712   1.280       .  A
O708       Ni710   1.913       .  S
O708        C711   1.281       .  A
Ni709      Ni710   2.389       .  S
C711       C2674   1.480       .  S
C712       C2625   1.485       .  S
C713       C3845   1.463       .  S
C714       C2654   1.464       .  S
O715       Ni723   1.916       .  S
O715        C725   1.281       .  A
O716       Ni723   1.918       .  S
O716        C726   1.281       .  A
O717       Ni723   1.913       .  S
O717        C727   1.280       .  A
O718       Ni723   1.913       .  S
O718        C728   1.280       .  A
O719       Ni724   1.922       .  S
O719        C728   1.282       .  A
O720       Ni724   1.920       .  S
O720        C727   1.282       .  A
O721       Ni724   1.916       .  S
O721        C726   1.281       .  A
O722       Ni724   1.906       .  S
O722        C725   1.279       .  A
Ni723      Ni724   2.387       .  S
C725       C2645   1.473       .  S
C726       C2614   1.479       .  S
C727       C2774   1.479       .  S
C728       C3305   1.488       .  S
O729       Ni737   1.922       .  S
O729        C739   1.283       .  A
O730       Ni737   1.925       .  S
O730        C740   1.284       .  A
O731       Ni737   1.899       .  S
O731        C741   1.276       .  A
O732       Ni737   1.903       .  S
O732        C742   1.278       .  A
O733       Ni738   1.933       .  S
O733        C742   1.285       .  A
O734       Ni738   1.922       .  S
O734        C741   1.283       .  A
O735       Ni738   1.906       .  S
O735        C740   1.278       .  A
O736       Ni738   1.899       .  S
O736        C739   1.277       .  A
Ni737      Ni738   2.389       .  S
C739       C2714   1.473       .  S
C740       C2574   1.488       .  S
C741       C4745   1.467       .  S
C742       C2585   1.482       .  S
O743       Ni751   1.936       .  S
O743        C753   1.285       .  A
O744       Ni751   1.928       .  S
O744        C754   1.283       .  A
O745       Ni751   1.904       .  S
O745        C755   1.278       .  A
O746       Ni751   1.908       .  S
O746        C756   1.277       .  A
O747       Ni752   1.921       .  S
O747        C756   1.283       .  A
O748       Ni752   1.922       .  S
O748        C755   1.282       .  A
O749       Ni752   1.907       .  S
O749        C754   1.279       .  A
O750       Ni752   1.903       .  S
O750        C753   1.278       .  A
Ni751      Ni752   2.383       .  S
C753       C2594   1.487       .  S
C754       C2545   1.486       .  S
C755       C2665   1.469       .  S
C756       C2794   1.496       .  S
O757       Ni765   1.925       .  S
O757        C767   1.284       .  A
O758       Ni765   1.924       .  S
O758        C768   1.283       .  A
O759       Ni765   1.899       .  S
O759        C769   1.277       .  A
O760       Ni765   1.904       .  S
O760        C770   1.277       .  A
O761       Ni766   1.926       .  S
O761        C770   1.284       .  A
O762       Ni766   1.925       .  S
O762        C769   1.283       .  A
O763       Ni766   1.907       .  S
O763        C768   1.278       .  A
O764       Ni766   1.906       .  S
O764        C767   1.278       .  A
Ni765      Ni766   2.389       .  S
C767       C2525   1.483       .  S
C768       C2494   1.481       .  S
C769       C2814   1.470       .  S
C770       C2505   1.475       .  S
O771       Ni779   1.917       .  S
O771        C781   1.281       .  A
O772       Ni779   1.918       .  S
O772        C782   1.282       .  A
O773       Ni779   1.910       .  S
O773        C783   1.279       .  A
O774       Ni779   1.909       .  S
O774        C784   1.279       .  A
O775       Ni780   1.914       .  S
O775        C784   1.280       .  A
O776       Ni780   1.916       .  S
O776        C783   1.281       .  A
O777       Ni780   1.917       .  S
O777        C782   1.281       .  A
O778       Ni780   1.914       .  S
O778        C781   1.281       .  A
Ni779      Ni780   2.388       .  S
C781       C2514   1.483       .  S
C782       C2445   1.490       .  S
C783       C2465   1.470       .  S
C784       C4545   1.467       .  S
O785       Ni793   1.919       .  S
O785        C795   1.282       .  A
O786       Ni793   1.920       .  S
O786        C796   1.281       .  A
O787       Ni793   1.912       .  S
O787        C797   1.279       .  A
O788       Ni793   1.916       .  S
O788        C798   1.280       .  A
O789       Ni794   1.922       .  S
O789        C798   1.282       .  A
O790       Ni794   1.927       .  S
O790        C797   1.283       .  A
O791       Ni794   1.900       .  S
O791        C796   1.278       .  A
O792       Ni794   1.901       .  S
O792        C795   1.277       .  A
Ni793      Ni794   2.386       .  S
C795       C2425   1.476       .  S
C796       C2385   1.486       .  S
C797       C2405   1.477       .  S
C798       C4394   1.477       .  S
O799       Ni807   1.917       .  S
O799        C809   1.282       .  A
O800       Ni807   1.914       .  S
O800        C810   1.281       .  A
O801       Ni807   1.899       .  S
O801        C811   1.277       .  A
O802       Ni807   1.897       .  S
O802        C812   1.277       .  A
O803       Ni808   1.922       .  S
O803        C812   1.282       .  A
O804       Ni808   1.923       .  S
O804        C811   1.283       .  A
O805       Ni808   1.905       .  S
O805        C810   1.279       .  A
O806       Ni808   1.901       .  S
O806        C809   1.278       .  A
Ni807      Ni808   2.391       .  S
C809       C2474   1.471       .  S
C810       C2634   1.471       .  S
C811       C4114   1.474       .  S
C812       C2434   1.466       .  S
O813       Ni821   1.920       .  S
O813        C823   1.282       .  A
O814       Ni821   1.916       .  S
O814        C824   1.280       .  A
O815       Ni821   1.915       .  S
O815        C825   1.281       .  A
O816       Ni821   1.921       .  S
O816        C826   1.281       .  A
O817       Ni822   1.914       .  S
O817        C826   1.281       .  A
O818       Ni822   1.921       .  S
O818        C825   1.281       .  A
O819       Ni822   1.908       .  S
O819        C824   1.279       .  A
O820       Ni822   1.909       .  S
O820        C823   1.280       .  A
Ni821      Ni822   2.387       .  S
C823       C2365   1.476       .  S
C824       C2694   1.491       .  S
C825       C2534   1.475       .  S
C826       C3105   1.478       .  S
O827       Ni835   1.920       .  S
O827        C837   1.282       .  A
O828       Ni835   1.919       .  S
O828        C838   1.281       .  A
O829       Ni835   1.909       .  S
O829        C839   1.278       .  A
O830       Ni835   1.906       .  S
O830        C840   1.279       .  A
O831       Ni836   1.921       .  S
O831        C840   1.281       .  A
O832       Ni836   1.913       .  S
O832        C839   1.280       .  A
O833       Ni836   1.927       .  S
O833        C838   1.283       .  A
O834       Ni836   1.926       .  S
O834        C837   1.283       .  A
Ni835      Ni836   2.387       .  S
C837       C2414   1.489       .  S
C838       C2345   1.498       .  S
C839       C3425   1.465       .  S
C840       C2374   1.471       .  S
O841       Ni849   1.920       .  S
O841        C851   1.282       .  A
O842       Ni849   1.923       .  S
O842        C852   1.282       .  A
O843       Ni849   1.916       .  S
O843        C853   1.280       .  A
O844       Ni849   1.918       .  S
O844        C854   1.281       .  A
O845       Ni850   1.914       .  S
O845        C854   1.279       .  A
O846       Ni850   1.915       .  S
O846        C853   1.280       .  A
O847       Ni850   1.912       .  S
O847        C852   1.281       .  A
O848       Ni850   1.910       .  S
O848        C851   1.280       .  A
Ni849      Ni850   2.388       .  S
C851       C2334   1.488       .  S
C852       C2294   1.485       .  S
C853       C4514   1.472       .  S
C854       C2305   1.472       .  S
O855       Ni863   1.926       .  S
O855        C865   1.284       .  A
O856       Ni863   1.925       .  S
O856        C866   1.283       .  A
O857       Ni863   1.905       .  S
O857        C867   1.278       .  A
O858       Ni863   1.896       .  S
O858        C868   1.275       .  A
O859       Ni864   1.931       .  S
O859        C868   1.284       .  A
O860       Ni864   1.926       .  S
O860        C867   1.282       .  A
O861       Ni864   1.914       .  S
O861        C866   1.279       .  A
O862       Ni864   1.911       .  S
O862        C865   1.279       .  A
Ni863      Ni864   2.385       .  S
C865       C2274   1.488       .  S
C866       C2245   1.499       .  S
C867       C2325   1.472       .  S
C868       C4074   1.468       .  S
O869       Ni877   1.915       .  S
O869        C879   1.281       .  A
O870       Ni877   1.916       .  S
O870        C880   1.281       .  A
O871       Ni877   1.912       .  S
O871        C881   1.280       .  A
O872       Ni877   1.910       .  S
O872        C882   1.280       .  A
O873       Ni878   1.919       .  S
O873        C882   1.281       .  A
O874       Ni878   1.919       .  S
O874        C881   1.282       .  A
O875       Ni878   1.901       .  S
O875        C880   1.278       .  A
O876       Ni878   1.907       .  S
O876        C879   1.279       .  A
Ni877      Ni878   2.390       .  S
C879       C2314   1.471       .  S
C880       C2394   1.470       .  S
C881       C2234   1.482       .  S
C882       C4934   1.474       .  S
O883       Ni891   1.916       .  S
O883        C893   1.282       .  A
O884       Ni891   1.916       .  S
O884        C894   1.280       .  A
O885       Ni891   1.912       .  S
O885        C895   1.279       .  A
O886       Ni891   1.909       .  S
O886        C896   1.280       .  A
O887       Ni892   1.925       .  S
O887        C896   1.282       .  A
O888       Ni892   1.916       .  S
O888        C895   1.281       .  A
O889       Ni892   1.907       .  S
O889        C894   1.280       .  A
O890       Ni892   1.912       .  S
O890        C893   1.279       .  A
Ni891      Ni892   2.390       .  S
C893       C2214   1.472       .  S
C894       C2485   1.479       .  S
C895       C3694   1.472       .  S
C896       C2265   1.477       .  S
O897       Ni905   1.919       .  S
O897        C907   1.283       .  A
O898       Ni905   1.920       .  S
O898        C908   1.282       .  A
O899       Ni905   1.903       .  S
O899        C909   1.277       .  A
O900       Ni905   1.902       .  S
O900        C910   1.277       .  A
O901       Ni906   1.926       .  S
O901        C910   1.284       .  A
O902       Ni906   1.929       .  S
O902        C909   1.283       .  A
O903       Ni906   1.909       .  S
O903        C908   1.279       .  A
O904       Ni906   1.908       .  S
O904        C907   1.278       .  A
Ni905      Ni906   2.391       .  S
C907       C2185   1.477       .  S
C908       C2165   1.475       .  S
C909       C2205   1.471       .  S
C910       C3534   1.472       .  S
O911       Ni919   1.909       .  S
O911        C921   1.277       .  A
O912       Ni919   1.906       .  S
O912        C922   1.278       .  A
O913       Ni919   1.909       .  S
O913        C923   1.280       .  A
O914       Ni919   1.915       .  S
O914        C924   1.281       .  A
O915       Ni920   1.918       .  S
O915        C924   1.281       .  A
O916       Ni920   1.921       .  S
O916        C923   1.281       .  A
O917       Ni920   1.914       .  S
O917        C922   1.280       .  A
O918       Ni920   1.922       .  S
O918        C921   1.283       .  A
Ni919      Ni920   2.382       .  S
C921       C2225   1.498       .  S
C922       C2145   1.464       .  S
C923       C3145   1.492       .  S
C924       C2194   1.485       .  S
O925       Ni933   1.915       .  S
O925        C935   1.280       .  A
O926       Ni933   1.910       .  S
O926        C936   1.279       .  A
O927       Ni933   1.908       .  S
O927        C937   1.277       .  A
O928       Ni933   1.904       .  S
O928        C938   1.279       .  A
O929       Ni934   1.920       .  S
O929        C938   1.281       .  A
O930       Ni934   1.909       .  S
O930        C937   1.278       .  A
O931       Ni934   1.906       .  S
O931        C936   1.278       .  A
O932       Ni934   1.900       .  S
O932        C935   1.278       .  A
Ni933      Ni934   2.380       .  S
C935       C2125   1.466       .  S
C936       C2094   1.487       .  S
C937       C3354   1.498       .  S
C938       C2105   1.470       .  S
O939       Ni947   1.929       .  S
O939        C949   1.285       .  A
O940       Ni947   1.931       .  S
O940        C950   1.285       .  A
O941       Ni947   1.902       .  S
O941        C951   1.276       .  A
O942       Ni947   1.899       .  S
O942        C952   1.277       .  A
O943       Ni948   1.924       .  S
O943        C952   1.282       .  A
O944       Ni948   1.922       .  S
O944        C951   1.283       .  A
O945       Ni948   1.903       .  S
O945        C950   1.278       .  A
O946       Ni948   1.899       .  S
O946        C949   1.277       .  A
Ni947      Ni948   2.389       .  S
C949       C2065   1.478       .  S
C950       C2734   1.490       .  S
C951       C3925   1.466       .  S
C952       C2045   1.468       .  S
O953       Ni961   1.915       .  S
O953        C963   1.281       .  A
O954       Ni961   1.913       .  S
O954        C964   1.280       .  A
O955       Ni961   1.903       .  S
O955        C965   1.278       .  A
O956       Ni961   1.904       .  S
O956        C966   1.278       .  A
O957       Ni962   1.915       .  S
O957        C966   1.281       .  A
O958       Ni962   1.916       .  S
O958        C965   1.280       .  A
O959       Ni962   1.911       .  S
O959        C964   1.280       .  A
O960       Ni962   1.913       .  S
O960        C963   1.280       .  A
Ni961      Ni962   2.390       .  S
C963       C2114   1.483       .  S
C964       C2025   1.477       .  S
C965       C2074   1.465       .  S
C966       C3585   1.467       .  S
O967       Ni975   1.924       .  S
O967        C977   1.283       .  A
O968       Ni975   1.922       .  S
O968        C978   1.282       .  A
O969       Ni975   1.900       .  S
O969        C979   1.278       .  A
O970       Ni975   1.901       .  S
O970        C980   1.277       .  A
O971       Ni976   1.918       .  S
O971        C980   1.281       .  A
O972       Ni976   1.918       .  S
O972        C979   1.280       .  A
O973       Ni976   1.908       .  S
O973        C978   1.280       .  A
O974       Ni976   1.908       .  S
O974        C977   1.279       .  A
Ni975      Ni976   2.390       .  S
C977       C2005   1.485       .  S
C978       C2554   1.482       .  S
C979       C2134   1.463       .  S
C980       C3034   1.464       .  S
O981       Ni989   1.919       .  S
O981        C991   1.282       .  A
O982       Ni989   1.918       .  S
O982        C992   1.281       .  A
O983       Ni989   1.913       .  S
O983        C993   1.280       .  A
O984       Ni989   1.916       .  S
O984        C994   1.281       .  A
O985       Ni990   1.918       .  S
O985        C994   1.281       .  A
O986       Ni990   1.916       .  S
O986        C993   1.281       .  A
O987       Ni990   1.904       .  S
O987        C992   1.279       .  A
O988       Ni990   1.902       .  S
O988        C991   1.278       .  A
Ni989      Ni990   2.390       .  S
C991       C2054   1.471       .  S
C992       C1965   1.474       .  S
C993       C1985   1.473       .  S
C994       C4694   1.482       .  S
O995      Ni1003   1.918       .  S
O995       C1005   1.282       .  A
O996      Ni1003   1.920       .  S
O996       C1006   1.282       .  A
O997      Ni1003   1.909       .  S
O997       C1007   1.278       .  A
O998      Ni1003   1.906       .  S
O998       C1008   1.279       .  A
O999      Ni1004   1.922       .  S
O999       C1008   1.282       .  A
O1000     Ni1004   1.924       .  S
O1000      C1007   1.282       .  A
O1001     Ni1004   1.909       .  S
O1001      C1006   1.279       .  A
O1002     Ni1004   1.906       .  S
O1002      C1005   1.279       .  A
Ni1003    Ni1004   2.389       .  S
C1005      C1994   1.481       .  S
C1006      C1945   1.479       .  S
C1007      C4994   1.470       .  S
C1008      C2014   1.475       .  S
O1009     Ni1017   1.921       .  S
O1009      C1019   1.283       .  A
O1010     Ni1017   1.924       .  S
O1010      C1020   1.283       .  A
O1011     Ni1017   1.903       .  S
O1011      C1021   1.277       .  A
O1012     Ni1017   1.908       .  S
O1012      C1022   1.279       .  A
O1013     Ni1018   1.925       .  S
O1013      C1022   1.283       .  A
O1014     Ni1018   1.918       .  S
O1014      C1021   1.281       .  A
O1015     Ni1018   1.917       .  S
O1015      C1020   1.281       .  A
O1016     Ni1018   1.910       .  S
O1016      C1019   1.279       .  A
Ni1017    Ni1018   2.389       .  S
C1019      C1925   1.480       .  S
C1020      C2354   1.489       .  S
C1021      C3634   1.466       .  S
C1022      C1914   1.475       .  S
O1023     Ni1031   1.926       .  S
O1023      C1033   1.283       .  A
O1024     Ni1031   1.921       .  S
O1024      C1034   1.282       .  A
O1025     Ni1031   1.900       .  S
O1025      C1035   1.278       .  A
O1026     Ni1031   1.908       .  S
O1026      C1036   1.278       .  A
O1027     Ni1032   1.908       .  S
O1027      C1036   1.280       .  A
O1028     Ni1032   1.909       .  S
O1028      C1035   1.279       .  A
O1029     Ni1032   1.903       .  S
O1029      C1034   1.279       .  A
O1030     Ni1032   1.906       .  S
O1030      C1033   1.280       .  A
Ni1031    Ni1032   2.391       .  S
C1033      C1905   1.483       .  S
C1034      C1974   1.481       .  S
C1035      C1894   1.461       .  S
C1036      C2845   1.463       .  S
O1037     Ni1045   1.906       .  S
O1037      C1047   1.279       .  A
O1038     Ni1045   1.906       .  S
O1038      C1048   1.278       .  A
O1039     Ni1045   1.915       .  S
O1039      C1049   1.281       .  A
O1040     Ni1045   1.909       .  S
O1040      C1050   1.279       .  A
O1041     Ni1046   1.919       .  S
O1041      C1050   1.282       .  A
O1042     Ni1046   1.913       .  S
O1042      C1049   1.278       .  A
O1043     Ni1046   1.917       .  S
O1043      C1048   1.280       .  A
O1044     Ni1046   1.914       .  S
O1044      C1047   1.281       .  A
Ni1045    Ni1046   2.386       .  S
C1047      C1865   1.472       .  S
C1048      C1845   1.495       .  S
C1049      C1934   1.470       .  S
C1050      C3914   1.474       .  S
O1051     Ni1059   1.914       .  S
O1051      C1061   1.281       .  A
O1052     Ni1059   1.915       .  S
O1052      C1062   1.281       .  A
O1053     Ni1059   1.913       .  S
O1053      C1063   1.280       .  A
O1054     Ni1059   1.912       .  S
O1054      C1064   1.280       .  A
O1055     Ni1060   1.912       .  S
O1055      C1064   1.279       .  A
O1056     Ni1060   1.914       .  S
O1056      C1063   1.281       .  A
O1057     Ni1060   1.903       .  S
O1057      C1062   1.279       .  A
O1058     Ni1060   1.904       .  S
O1058      C1061   1.278       .  A
Ni1059    Ni1060   2.391       .  S
C1061      C1825   1.477       .  S
C1062      C2085   1.472       .  S
C1063      C4325   1.470       .  S
C1064      C1874   1.466       .  S
O1065     Ni1073   1.929       .  S
O1065      C1075   1.284       .  A
O1066     Ni1073   1.929       .  S
O1066      C1076   1.283       .  A
O1067     Ni1073   1.902       .  S
O1067      C1077   1.278       .  A
O1068     Ni1073   1.908       .  S
O1068      C1078   1.278       .  A
O1069     Ni1074   1.907       .  S
O1069      C1078   1.279       .  A
O1070     Ni1074   1.914       .  S
O1070      C1077   1.280       .  A
O1071     Ni1074   1.910       .  S
O1071      C1076   1.279       .  A
O1072     Ni1074   1.912       .  S
O1072      C1075   1.279       .  A
Ni1073    Ni1074   2.387       .  S
C1075      C1805   1.487       .  S
C1076      C2454   1.500       .  S
C1077      C1834   1.465       .  S
C1078      C5105   1.463       .  S
O1079     Ni1087   1.904       .  S
O1079      C1089   1.278       .  A
O1080     Ni1087   1.905       .  S
O1080      C1090   1.278       .  A
O1081     Ni1087   1.921       .  S
O1081      C1091   1.282       .  A
O1082     Ni1087   1.921       .  S
O1082      C1092   1.282       .  A
O1083     Ni1088   1.920       .  S
O1083      C1092   1.281       .  A
O1084     Ni1088   1.914       .  S
O1084      C1091   1.280       .  A
O1085     Ni1088   1.907       .  S
O1085      C1090   1.280       .  A
O1086     Ni1088   1.903       .  S
O1086      C1089   1.279       .  A
Ni1087    Ni1088   2.391       .  S
C1089      C1885   1.464       .  S
C1090      C1794   1.469       .  S
C1091      C3074   1.477       .  S
C1092      C1814   1.479       .  S
O1093     Ni1101   1.915       .  S
O1093      C1103   1.280       .  A
O1094     Ni1101   1.912       .  S
O1094      C1104   1.280       .  A
O1095     Ni1101   1.908       .  S
O1095      C1105   1.278       .  A
O1096     Ni1101   1.898       .  S
O1096      C1106   1.279       .  A
O1097     Ni1102   1.913       .  S
O1097      C1106   1.280       .  A
O1098     Ni1102   1.906       .  S
O1098      C1105   1.279       .  A
O1099     Ni1102   1.901       .  S
O1099      C1104   1.278       .  A
O1100     Ni1102   1.910       .  S
O1100      C1103   1.280       .  A
Ni1101    Ni1102   2.391       .  S
C1103      C1765   1.469       .  S
C1104      C1785   1.475       .  S
C1105      C3465   1.463       .  S
C1106      C1754   1.472       .  S
O1107     Ni1115   1.935       .  S
O1107      C1117   1.285       .  A
O1108     Ni1115   1.929       .  S
O1108      C1118   1.285       .  A
O1109     Ni1115   1.901       .  S
O1109      C1119   1.277       .  A
O1110     Ni1115   1.899       .  S
O1110      C1120   1.275       .  A
O1111     Ni1116   1.923       .  S
O1111      C1120   1.284       .  A
O1112     Ni1116   1.923       .  S
O1112      C1119   1.282       .  A
O1113     Ni1116   1.905       .  S
O1113      C1118   1.276       .  A
O1114     Ni1116   1.889       .  S
O1114      C1117   1.272       .  A
Ni1115    Ni1116   2.383       .  S
C1117      C1745   1.502       .  S
C1118      C2254   1.473       .  S
C1119      C1734   1.485       .  S
C1120      C4274   1.466       .  S
O1121     Ni1129   1.914       .  S
O1121      C1131   1.281       .  A
O1122     Ni1129   1.913       .  S
O1122      C1132   1.280       .  A
O1123     Ni1129   1.902       .  S
O1123      C1133   1.278       .  A
O1124     Ni1129   1.901       .  S
O1124      C1134   1.278       .  A
O1125     Ni1130   1.928       .  S
O1125      C1134   1.283       .  A
O1126     Ni1130   1.924       .  S
O1126      C1133   1.283       .  A
O1127     Ni1130   1.906       .  S
O1127      C1132   1.278       .  A
O1128     Ni1130   1.898       .  S
O1128      C1131   1.277       .  A
Ni1129    Ni1130   2.391       .  S
C1131      C1705   1.468       .  S
C1132      C2154   1.467       .  S
C1133      C2965   1.474       .  S
C1134      C1685   1.479       .  S
O1135     Ni1143   1.914       .  S
O1135      C1145   1.281       .  A
O1136     Ni1143   1.916       .  S
O1136      C1146   1.279       .  A
O1137     Ni1143   1.911       .  S
O1137      C1147   1.278       .  A
O1138     Ni1143   1.913       .  S
O1138      C1148   1.281       .  A
O1139     Ni1144   1.913       .  S
O1139      C1148   1.279       .  A
O1140     Ni1144   1.922       .  S
O1140      C1147   1.282       .  A
O1141     Ni1144   1.912       .  S
O1141      C1146   1.280       .  A
O1142     Ni1144   1.911       .  S
O1142      C1145   1.280       .  A
Ni1143    Ni1144   2.386       .  S
C1145      C1694   1.475       .  S
C1146      C1674   1.499       .  S
C1147      C1774   1.475       .  S
C1148      C3734   1.471       .  S
O1149     Ni1157   1.912       .  S
O1149      C1159   1.279       .  A
O1150     Ni1157   1.905       .  S
O1150      C1160   1.278       .  A
O1151     Ni1157   1.916       .  S
O1151      C1161   1.281       .  A
O1152     Ni1157   1.905       .  S
O1152      C1162   1.279       .  A
O1153     Ni1158   1.921       .  S
O1153      C1162   1.282       .  A
O1154     Ni1158   1.911       .  S
O1154      C1161   1.278       .  A
O1155     Ni1158   1.916       .  S
O1155      C1160   1.281       .  A
O1156     Ni1158   1.913       .  S
O1156      C1159   1.281       .  A
Ni1157    Ni1158   2.387       .  S
C1159      C1725   1.480       .  S
C1160      C1625   1.489       .  S
C1161      C5045   1.465       .  S
C1162      C1645   1.478       .  S
O1163     Ni1171   1.915       .  S
O1163      C1173   1.281       .  A
O1164     Ni1171   1.916       .  S
O1164      C1174   1.281       .  A
O1165     Ni1171   1.899       .  S
O1165      C1175   1.277       .  A
O1166     Ni1171   1.903       .  S
O1166      C1176   1.277       .  A
O1167     Ni1172   1.929       .  S
O1167      C1176   1.285       .  A
O1168     Ni1172   1.925       .  S
O1168      C1175   1.283       .  A
O1169     Ni1172   1.913       .  S
O1169      C1174   1.278       .  A
O1170     Ni1172   1.904       .  S
O1170      C1173   1.278       .  A
Ni1171    Ni1172   2.389       .  S
C1173      C1654   1.465       .  S
C1174      C1854   1.466       .  S
C1175      C1714   1.480       .  S
C1176      C4594   1.486       .  S
O1177     Ni1185   1.922       .  S
O1177      C1187   1.283       .  A
O1178     Ni1185   1.921       .  S
O1178      C1188   1.281       .  A
O1179     Ni1185   1.908       .  S
O1179      C1189   1.278       .  A
O1180     Ni1185   1.904       .  S
O1180      C1190   1.278       .  A
O1181     Ni1186   1.918       .  S
O1181      C1190   1.280       .  A
O1182     Ni1186   1.913       .  S
O1182      C1189   1.280       .  A
O1183     Ni1186   1.908       .  S
O1183      C1188   1.279       .  A
O1184     Ni1186   1.910       .  S
O1184      C1187   1.280       .  A
Ni1185    Ni1186   2.388       .  S
C1187      C1614   1.483       .  S
C1188      C1954   1.492       .  S
C1189      C4194   1.465       .  S
C1190      C1594   1.466       .  S
O1191     Ni1199   1.913       .  S
O1191      C1201   1.281       .  A
O1192     Ni1199   1.914       .  S
O1192      C1202   1.281       .  A
O1193     Ni1199   1.898       .  S
O1193      C1203   1.277       .  A
O1194     Ni1199   1.900       .  S
O1194      C1204   1.276       .  A
O1195     Ni1200   1.931       .  S
O1195      C1204   1.284       .  A
O1196     Ni1200   1.934       .  S
O1196      C1203   1.284       .  A
O1197     Ni1200   1.911       .  S
O1197      C1202   1.280       .  A
O1198     Ni1200   1.907       .  S
O1198      C1201   1.278       .  A
Ni1199    Ni1200   2.390       .  S
C1201      C1565   1.475       .  S
C1202      C1665   1.480       .  S
C1203      C1605   1.472       .  S
C1204      C3974   1.472       .  S
O1205     Ni1213   1.920       .  S
O1205      C1215   1.281       .  A
O1206     Ni1213   1.923       .  S
O1206      C1216   1.282       .  A
O1207     Ni1213   1.913       .  S
O1207      C1217   1.279       .  A
O1208     Ni1213   1.910       .  S
O1208      C1218   1.281       .  A
O1209     Ni1214   1.918       .  S
O1209      C1218   1.276       .  A
O1210     Ni1214   1.922       .  S
O1210      C1217   1.281       .  A
O1211     Ni1214   1.920       .  S
O1211      C1216   1.281       .  A
O1212     Ni1214   1.918       .  S
O1212      C1215   1.281       .  A
Ni1213    Ni1214   2.378       .  S
C1215      C1585   1.489       .  S
C1216      C1525   1.499       .  S
C1217      C1554   1.472       .  S
C1218      C3394   1.507       .  S
O1219     Ni1227   1.925       .  S
O1219      C1229   1.284       .  A
O1220     Ni1227   1.922       .  S
O1220      C1230   1.282       .  A
O1221     Ni1227   1.894       .  S
O1221      C1231   1.276       .  A
O1222     Ni1227   1.889       .  S
O1222      C1232   1.275       .  A
O1223     Ni1228   1.922       .  S
O1223      C1232   1.282       .  A
O1224     Ni1228   1.918       .  S
O1224      C1231   1.282       .  A
O1225     Ni1228   1.901       .  S
O1225      C1230   1.278       .  A
O1226     Ni1228   1.903       .  S
O1226      C1229   1.278       .  A
Ni1227    Ni1228   2.391       .  S
C1229      C1545   1.477       .  S
C1230      C1634   1.480       .  S
C1231      C3245   1.463       .  S
C1232      C1505   1.463       .  S
O1233     Ni1241   1.921       .  S
O1233      C1243   1.282       .  A
O1234     Ni1241   1.921       .  S
O1234      C1244   1.282       .  A
O1235     Ni1241   1.895       .  S
O1235      C1245   1.277       .  A
O1236     Ni1241   1.900       .  S
O1236      C1246   1.276       .  A
O1237     Ni1242   1.922       .  S
O1237      C1246   1.283       .  A
O1238     Ni1242   1.921       .  S
O1238      C1245   1.282       .  A
O1239     Ni1242   1.903       .  S
O1239      C1244   1.278       .  A
O1240     Ni1242   1.902       .  S
O1240      C1243   1.278       .  A
Ni1241    Ni1242   2.389       .  S
C1243      C1514   1.480       .  S
C1244      C2034   1.482       .  S
C1245      C1494   1.465       .  S
C1246      C2925   1.468       .  S
O1247     Ni1255   1.919       .  S
O1247      C1257   1.283       .  A
O1248     Ni1255   1.919       .  S
O1248      C1258   1.282       .  A
O1249     Ni1255   1.906       .  S
O1249      C1259   1.278       .  A
O1250     Ni1255   1.902       .  S
O1250      C1260   1.278       .  A
O1251     Ni1256   1.915       .  S
O1251      C1260   1.280       .  A
O1252     Ni1256   1.912       .  S
O1252      C1259   1.280       .  A
O1253     Ni1256   1.898       .  S
O1253      C1258   1.277       .  A
O1254     Ni1256   1.899       .  S
O1254      C1257   1.277       .  A
Ni1255    Ni1256   2.390       .  S
C1257      C1485   1.475       .  S
C1258      C1474   1.481       .  S
C1259      C4645   1.463       .  S
C1260      C1574   1.462       .  S
O1261     Ni1269   1.915       .  S
O1261      C1271   1.280       .  A
O1262     Ni1269   1.927       .  S
O1262      C1272   1.283       .  A
O1263     Ni1269   1.896       .  S
O1263      C1273   1.277       .  A
O1264     Ni1269   1.898       .  S
O1264      C1274   1.276       .  A
O1265     Ni1270   1.918       .  S
O1265      C1274   1.281       .  A
O1266     Ni1270   1.915       .  S
O1266      C1273   1.281       .  A
O1267     Ni1270   1.907       .  S
O1267      C1272   1.279       .  A
O1268     Ni1270   1.915       .  S
O1268      C1271   1.279       .  A
Ni1269    Ni1270   2.378       .  S
C1271      C1445   1.497       .  S
C1272      C2605   1.496       .  S
C1273      C1425   1.471       .  S
C1274      C3205   1.485       .  S
O1275     Ni1283   1.931       .  S
O1275      C1285   1.284       .  A
O1276     Ni1283   1.927       .  S
O1276      C1286   1.283       .  A
O1277     Ni1283   1.908       .  S
O1277      C1287   1.280       .  A
O1278     Ni1283   1.912       .  S
O1278      C1288   1.279       .  A
O1279     Ni1284   1.917       .  S
O1279      C1288   1.282       .  A
O1280     Ni1284   1.923       .  S
O1280      C1287   1.282       .  A
O1281     Ni1284   1.919       .  S
O1281      C1286   1.281       .  A
O1282     Ni1284   1.912       .  S
O1282      C1285   1.279       .  A
Ni1283    Ni1284   2.387       .  S
C1285      C1405   1.480       .  S
C1286      C1534   1.486       .  S
C1287      C1385   1.477       .  S
C1288      C3794   1.486       .  S
O1289     Ni1297   1.928       .  S
O1289      C1299   1.283       .  A
O1290     Ni1297   1.935       .  S
O1290      C1300   1.285       .  A
O1291     Ni1297   1.901       .  S
O1291      C1301   1.275       .  A
O1292     Ni1297   1.901       .  S
O1292      C1302   1.277       .  A
O1293     Ni1298   1.923       .  S
O1293      C1302   1.283       .  A
O1294     Ni1298   1.921       .  S
O1294      C1301   1.282       .  A
O1295     Ni1298   1.906       .  S
O1295      C1300   1.278       .  A
O1296     Ni1298   1.915       .  S
O1296      C1299   1.280       .  A
Ni1297    Ni1298   2.380       .  S
C1299      C1394   1.488       .  S
C1300      C2285   1.493       .  S
C1301      C2894   1.500       .  S
C1302      C1454   1.477       .  S
O1303     Ni1311   1.910       .  S
O1303      C1313   1.280       .  A
O1304     Ni1311   1.911       .  S
O1304      C1314   1.280       .  A
O1305     Ni1311   1.915       .  S
O1305      C1315   1.280       .  A
O1306     Ni1311   1.917       .  S
O1306      C1316   1.281       .  A
O1307     Ni1312   1.924       .  S
O1307      C1316   1.282       .  A
O1308     Ni1312   1.923       .  S
O1308      C1315   1.283       .  A
O1309     Ni1312   1.904       .  S
O1309      C1314   1.279       .  A
O1310     Ni1312   1.903       .  S
O1310      C1313   1.278       .  A
Ni1311    Ni1312   2.387       .  S
C1313      C1434   1.477       .  S
C1314      C1465   1.473       .  S
C1315      C4874   1.479       .  S
C1316      C1374   1.481       .  S
O1317     Ni1325   1.914       .  S
O1317      C1327   1.280       .  A
O1318     Ni1325   1.913       .  S
O1318      C1328   1.280       .  A
O1319     Ni1325   1.920       .  S
O1319      C1329   1.281       .  A
O1320     Ni1325   1.924       .  S
O1320      C1330   1.283       .  A
O1321     Ni1326   1.916       .  S
O1321      C1330   1.279       .  A
O1322     Ni1326   1.909       .  S
O1322      C1329   1.279       .  A
O1323     Ni1326   1.914       .  S
O1323      C1328   1.281       .  A
O1324     Ni1326   1.913       .  S
O1324      C1327   1.281       .  A
Ni1325    Ni1326   2.388       .  S
C1327      C1354   1.484       .  S
C1328      C2565   1.482       .  S
C1329      C4034   1.473       .  S
C1330      C1414   1.476       .  S
O1331     Ni1339   1.927       .  S
O1331      C1341   1.283       .  A
O1332     Ni1339   1.929       .  S
O1332      C1342   1.281       .  A
O1333     Ni1339   1.916       .  S
O1333      C1343   1.280       .  A
O1334     Ni1339   1.914       .  S
O1334      C1344   1.280       .  A
O1335     Ni1340   1.926       .  S
O1335      C1344   1.283       .  A
O1336     Ni1340   1.917       .  S
O1336      C1343   1.282       .  A
O1337     Ni1340   1.914       .  S
O1337      C1342   1.282       .  A
O1338     Ni1340   1.911       .  S
O1338      C1341   1.281       .  A
Ni1339    Ni1340   2.384       .  S
C1341      C1365   1.485       .  S
C1342      C2174   1.498       .  S
C1343      C1345   1.482       .  S
C1344      C4205   1.482       .  S
C1345      C1346   1.417       .  A
C1345      C1350   1.414       .  A
C1346      C1347   1.405       .  A
C1346     Br1358   1.933       .  S
C1347      C1348   1.405       .  A
C1347     Br1362   1.931       .  S
C1348      C1351   1.478       .  S
C1348      C1349   1.405       .  A
C1349      C1350   1.406       .  A
C1349     Br1357   1.933       .  S
C1350     Br1361   1.921       .  S
C1351      C1352   1.405       .  A
C1351      C1356   1.405       .  A
C1352      C1353   1.405       .  A
C1352     Br1363   1.931       .  S
C1353      C1354   1.416       .  A
C1353     Br1359   1.932       .  S
C1354      C1355   1.420       .  A
C1355      C1356   1.406       .  A
C1355     Br1364   1.935       .  S
C1356     Br1360   1.933       .  S
C1365      C1366   1.413       .  A
C1365      C1370   1.416       .  A
C1366      C1367   1.407       .  A
C1366     Br1378   1.932       .  S
C1367      C1368   1.408       .  A
C1367     Br1382   1.929       .  S
C1368      C1371   1.489       .  S
C1368      C1369   1.410       .  A
C1369      C1370   1.411       .  A
C1369     Br1377   1.930       .  S
C1370     Br1381   1.932       .  S
C1371      C1372   1.410       .  A
C1371      C1376   1.409       .  A
C1372      C1373   1.409       .  A
C1372     Br1383   1.930       .  S
C1373      C1374   1.410       .  A
C1373     Br1379   1.930       .  S
C1374      C1375   1.414       .  A
C1375      C1376   1.410       .  A
C1375     Br1384   1.931       .  S
C1376     Br1380   1.930       .  S
C1385      C1386   1.409       .  A
C1385      C1390   1.413       .  A
C1386      C1387   1.406       .  A
C1386     Br1398   1.930       .  S
C1387      C1388   1.409       .  A
C1387     Br1402   1.928       .  S
C1388      C1391   1.486       .  S
C1388      C1389   1.409       .  A
C1389      C1390   1.409       .  A
C1389     Br1397   1.930       .  S
C1390     Br1401   1.932       .  S
C1391      C1392   1.410       .  A
C1391      C1396   1.405       .  A
C1392      C1393   1.410       .  A
C1392     Br1403   1.931       .  S
C1393      C1394   1.415       .  A
C1393     Br1399   1.931       .  S
C1394      C1395   1.417       .  A
C1395      C1396   1.407       .  A
C1395     Br1404   1.928       .  S
C1396     Br1400   1.931       .  S
C1405      C1406   1.412       .  A
C1405      C1410   1.411       .  A
C1406      C1407   1.410       .  A
C1406     Br1418   1.929       .  S
C1407      C1408   1.410       .  A
C1407     Br1422   1.930       .  S
C1408      C1411   1.488       .  S
C1408      C1409   1.410       .  A
C1409      C1410   1.407       .  A
C1409     Br1417   1.931       .  S
C1410     Br1421   1.931       .  S
C1411      C1412   1.408       .  A
C1411      C1416   1.413       .  A
C1412      C1413   1.404       .  A
C1412     Br1423   1.931       .  S
C1413      C1414   1.410       .  A
C1413     Br1419   1.926       .  S
C1414      C1415   1.408       .  A
C1415      C1416   1.412       .  A
C1415     Br1424   1.928       .  S
C1416     Br1420   1.927       .  S
C1425      C1426   1.415       .  A
C1425      C1430   1.414       .  A
C1426      C1427   1.404       .  A
C1426     Br1438   1.933       .  S
C1427      C1428   1.405       .  A
C1427     Br1442   1.931       .  S
C1428      C1431   1.472       .  S
C1428      C1429   1.406       .  A
C1429      C1430   1.401       .  A
C1429     Br1437   1.933       .  S
C1430     Br1441   1.934       .  S
C1431      C1432   1.403       .  A
C1431      C1436   1.405       .  A
C1432      C1433   1.404       .  A
C1432     Br1443   1.932       .  S
C1433      C1434   1.418       .  A
C1433     Br1439   1.934       .  S
C1434      C1435   1.418       .  A
C1435      C1436   1.402       .  A
C1435     Br1444   1.935       .  S
C1436     Br1440   1.934       .  S
C1445      C1446   1.425       .  A
C1445      C1450   1.425       .  A
C1446      C1447   1.407       .  A
C1446     Br1458   1.937       .  S
C1447      C1448   1.403       .  A
C1447     Br1462   1.934       .  S
C1448      C1451   1.479       .  S
C1448      C1449   1.402       .  A
C1449      C1450   1.407       .  A
C1449     Br1457   1.934       .  S
C1450     Br1461   1.932       .  S
C1451      C1452   1.407       .  A
C1451      C1456   1.406       .  A
C1452      C1453   1.405       .  A
C1452     Br1463   1.931       .  S
C1453      C1454   1.414       .  A
C1453     Br1459   1.931       .  S
C1454      C1455   1.415       .  A
C1455      C1456   1.405       .  A
C1455     Br1464   1.933       .  S
C1456     Br1460   1.931       .  S
C1465      C1466   1.415       .  A
C1465      C1470   1.414       .  A
C1466      C1467   1.403       .  A
C1466     Br1478   1.934       .  S
C1467      C1468   1.406       .  A
C1467     Br1482   1.934       .  S
C1468      C1471   1.473       .  S
C1468      C1469   1.405       .  A
C1469      C1470   1.404       .  A
C1469     Br1477   1.929       .  S
C1470     Br1481   1.932       .  S
C1471      C1472   1.406       .  A
C1471      C1476   1.402       .  A
C1472      C1473   1.405       .  A
C1472     Br1483   1.933       .  S
C1473      C1474   1.417       .  A
C1473     Br1479   1.933       .  S
C1474      C1475   1.420       .  A
C1475      C1476   1.403       .  A
C1475     Br1484   1.935       .  S
C1476     Br1480   1.931       .  S
C1485      C1486   1.418       .  A
C1485      C1490   1.411       .  A
C1486      C1487   1.403       .  A
C1486     Br1498   1.935       .  S
C1487      C1488   1.404       .  A
C1487     Br1502   1.932       .  S
C1488      C1491   1.474       .  S
C1488      C1489   1.408       .  A
C1489      C1490   1.404       .  A
C1489     Br1497   1.932       .  S
C1490     Br1501   1.932       .  S
C1491      C1492   1.408       .  A
C1491      C1496   1.407       .  A
C1492      C1493   1.406       .  A
C1492     Br1503   1.930       .  S
C1493      C1494   1.410       .  A
C1493     Br1499   1.931       .  S
C1494      C1495   1.409       .  A
C1495      C1496   1.400       .  A
C1495     Br1504   1.932       .  S
C1496     Br1500   1.932       .  S
C1505      C1506   1.410       .  A
C1505      C1510   1.409       .  A
C1506      C1507   1.403       .  A
C1506     Br1518   1.933       .  S
C1507      C1508   1.408       .  A
C1507     Br1522   1.930       .  S
C1508      C1511   1.475       .  S
C1508      C1509   1.408       .  A
C1509      C1510   1.403       .  A
C1509     Br1517   1.931       .  S
C1510     Br1521   1.931       .  S
C1511      C1512   1.403       .  A
C1511      C1516   1.407       .  A
C1512      C1513   1.404       .  A
C1512     Br1523   1.932       .  S
C1513      C1514   1.418       .  A
C1513     Br1519   1.933       .  S
C1514      C1515   1.416       .  A
C1515      C1516   1.406       .  A
C1515     Br1524   1.933       .  S
C1516     Br1520   1.933       .  S
C1525      C1526   1.423       .  A
C1525      C1530   1.420       .  A
C1526      C1527   1.411       .  A
C1526     Br1538   1.934       .  S
C1527      C1528   1.407       .  A
C1527     Br1542   1.932       .  S
C1528      C1531   1.492       .  S
C1528      C1529   1.407       .  A
C1529      C1530   1.411       .  A
C1529     Br1537   1.931       .  S
C1530     Br1541   1.933       .  S
C1531      C1532   1.410       .  A
C1531      C1536   1.410       .  A
C1532      C1533   1.411   1_545  A
C1532     Br1543   1.929       .  S
C1533      C1534   1.413       .  A
C1533     Br1539   1.930       .  S
C1534      C1535   1.414       .  A
C1535      C1536   1.410   1_565  A
C1535     Br1544   1.932       .  S
C1536     Br1540   1.931       .  S
C1545      C1546   1.415       .  A
C1545      C1550   1.412       .  A
C1546      C1547   1.407       .  A
C1546     Br1558   1.933       .  S
C1547      C1548   1.407       .  A
C1547     Br1562   1.930       .  S
C1548      C1551   1.482       .  S
C1548      C1549   1.409       .  A
C1549      C1550   1.406       .  A
C1549     Br1557   1.930       .  S
C1550     Br1561   1.932       .  S
C1551      C1552   1.408       .  A
C1551      C1556   1.409       .  A
C1552      C1553   1.405       .  A
C1552     Br1563   1.931       .  S
C1553      C1554   1.409       .  A
C1553     Br1559   1.929       .  S
C1554      C1555   1.410       .  A
C1555      C1556   1.409       .  A
C1555     Br1564   1.929       .  S
C1556     Br1560   1.928       .  S
C1565      C1566   1.413       .  A
C1565      C1570   1.417       .  A
C1566      C1567   1.403       .  A
C1566     Br1578   1.933       .  S
C1567      C1568   1.406       .  A
C1567     Br1582   1.932       .  S
C1568      C1571   1.474       .  S
C1568      C1569   1.405       .  A
C1569      C1570   1.405       .  A
C1569     Br1577   1.931       .  S
C1570     Br1581   1.933       .  S
C1571      C1572   1.409       .  A
C1571      C1576   1.407       .  A
C1572      C1573   1.403       .  A
C1572     Br1583   1.930       .  S
C1573      C1574   1.407       .  A
C1573     Br1579   1.930       .  S
C1574      C1575   1.409       .  A
C1575      C1576   1.403       .  A
C1575     Br1584   1.931       .  S
C1576     Br1580   1.929       .  S
C1585      C1586   1.418       .  A
C1585      C1590   1.419       .  A
C1586      C1587   1.409       .  A
C1586     Br1598   1.932       .  S
C1587      C1588   1.407       .  A
C1587     Br1602   1.932       .  S
C1588      C1591   1.481       .  S
C1588      C1589   1.404       .  A
C1589      C1590   1.407       .  A
C1589     Br1597   1.933       .  S
C1590     Br1601   1.931       .  S
C1591      C1592   1.410       .  A
C1591      C1596   1.410       .  A
C1592      C1593   1.406       .  A
C1592     Br1603   1.928       .  S
C1593      C1594   1.408       .  A
C1593     Br1599   1.931       .  S
C1594      C1595   1.407       .  A
C1595      C1596   1.405       .  A
C1595     Br1604   1.931       .  S
C1596     Br1600   1.930       .  S
C1605      C1606   1.409       .  A
C1605      C1610   1.409       .  A
C1606      C1607   1.406       .  A
C1606     Br1618   1.929       .  S
C1607      C1608   1.409       .  A
C1607     Br1622   1.929       .  S
C1608      C1611   1.483       .  S
C1608      C1609   1.409       .  A
C1609      C1610   1.407       .  A
C1609     Br1617   1.929       .  S
C1610     Br1621   1.928       .  S
C1611      C1612   1.409       .  A
C1611      C1616   1.405       .  A
C1612      C1613   1.409       .  A
C1612     Br1623   1.931       .  S
C1613      C1614   1.415       .  A
C1613     Br1619   1.933       .  S
C1614      C1615   1.417       .  A
C1615      C1616   1.406       .  A
C1615     Br1624   1.933       .  S
C1616     Br1620   1.931       .  S
C1625      C1626   1.421       .  A
C1625      C1630   1.425       .  A
C1626      C1627   1.405       .  A
C1626     Br1638   1.929       .  S
C1627      C1628   1.402       .  A
C1627     Br1642   1.933       .  S
C1628      C1631   1.475       .  S
C1628      C1629   1.403       .  A
C1629      C1630   1.405       .  A
C1629     Br1637   1.934       .  S
C1630     Br1641   1.939       .  S
C1631      C1632   1.403   1_455  A
C1631      C1636   1.407   1_455  A
C1632      C1633   1.403       .  A
C1632     Br1643   1.932   1_655  S
C1633      C1634   1.418       .  A
C1633     Br1639   1.933       .  S
C1634      C1635   1.416       .  A
C1635      C1636   1.405       .  A
C1635     Br1644   1.932       .  S
C1636     Br1640   1.933       .  S
C1645      C1646   1.415       .  A
C1645      C1650   1.413       .  A
C1646      C1647   1.403       .  A
C1646     Br1658   1.933       .  S
C1647      C1648   1.405       .  A
C1647     Br1662   1.932       .  S
C1648      C1651   1.474       .  S
C1648      C1649   1.406       .  A
C1649      C1650   1.405       .  A
C1649     Br1657   1.932       .  S
C1650     Br1661   1.924       .  S
C1651      C1652   1.407       .  A
C1651      C1656   1.408       .  A
C1652      C1653   1.403       .  A
C1652     Br1663   1.931       .  S
C1653      C1654   1.411       .  A
C1653     Br1659   1.931       .  S
C1654      C1655   1.408       .  A
C1655      C1656   1.404       .  A
C1655     Br1664   1.931       .  S
C1656     Br1660   1.929       .  S
C1665      C1666   1.416       .  A
C1665      C1670   1.416       .  A
C1666      C1667   1.406       .  A
C1666     Br1678   1.934       .  S
C1667      C1668   1.407       .  A
C1667     Br1682   1.932       .  S
C1668      C1671   1.481       .  S
C1668      C1669   1.407       .  A
C1669      C1670   1.406       .  A
C1669     Br1677   1.932       .  S
C1670     Br1681   1.932       .  S
C1671      C1672   1.403       .  A
C1671      C1676   1.404       .  A
C1672      C1673   1.405       .  A
C1672     Br1683   1.934       .  S
C1673      C1674   1.424       .  A
C1673     Br1679   1.935       .  S
C1674      C1675   1.427       .  A
C1675      C1676   1.409       .  A
C1675     Br1684   1.936       .  S
C1676     Br1680   1.934       .  S
C1685      C1686   1.415       .  A
C1685      C1690   1.413       .  A
C1686      C1687   1.400       .  A
C1686     Br1698   1.935       .  S
C1687      C1688   1.405       .  A
C1687     Br1702   1.935       .  S
C1688      C1691   1.478       .  S
C1688      C1689   1.408       .  A
C1689      C1690   1.411       .  A
C1689     Br1697   1.928       .  S
C1690     Br1701   1.928       .  S
C1691      C1692   1.407       .  A
C1691      C1696   1.406       .  A
C1692      C1693   1.405       .  A
C1692     Br1703   1.930       .  S
C1693      C1694   1.413       .  A
C1693     Br1699   1.933       .  S
C1694      C1695   1.414       .  A
C1695      C1696   1.405       .  A
C1695     Br1704   1.933       .  S
C1696     Br1700   1.931       .  S
C1705      C1706   1.412       .  A
C1705      C1710   1.412       .  A
C1706      C1707   1.403       .  A
C1706     Br1718   1.933       .  S
C1707      C1708   1.407       .  A
C1707     Br1722   1.930       .  S
C1708      C1711   1.473       .  S
C1708      C1709   1.406       .  A
C1709      C1710   1.402       .  A
C1709     Br1717   1.931       .  S
C1710     Br1721   1.934       .  S
C1711      C1712   1.403       .  A
C1711      C1716   1.406       .  A
C1712      C1713   1.400       .  A
C1712     Br1723   1.936       .  S
C1713      C1714   1.420       .  A
C1713     Br1719   1.937       .  S
C1714      C1715   1.415       .  A
C1715      C1716   1.408       .  A
C1715     Br1724   1.929       .  S
C1716     Br1720   1.930       .  S
C1725      C1726   1.415       .  A
C1725      C1730   1.418       .  A
C1726      C1727   1.403       .  A
C1726     Br1738   1.934       .  S
C1727      C1728   1.405       .  A
C1727     Br1742   1.932       .  S
C1728      C1731   1.477       .  S
C1728      C1729   1.406       .  A
C1729      C1730   1.407       .  A
C1729     Br1737   1.932       .  S
C1730     Br1741   1.934       .  S
C1731      C1732   1.406       .  A
C1731      C1736   1.403       .  A
C1732      C1733   1.409       .  A
C1732     Br1743   1.929       .  S
C1733      C1734   1.416       .  A
C1733     Br1739   1.930       .  S
C1734      C1735   1.421       .  A
C1735      C1736   1.402       .  A
C1735     Br1744   1.935       .  S
C1736     Br1740   1.936       .  S
C1745      C1746   1.424       .  A
C1745      C1750   1.434       .  A
C1746      C1747   1.407       .  A
C1746     Br1758   1.933       .  S
C1747      C1748   1.405       .  A
C1747     Br1762   1.934       .  S
C1748      C1751   1.477       .  S
C1748      C1749   1.400       .  A
C1749      C1750   1.405       .  A
C1749     Br1757   1.939       .  S
C1750     Br1761   1.942       .  S
C1751      C1752   1.407       .  A
C1751      C1756   1.408       .  A
C1752      C1753   1.404       .  A
C1752     Br1763   1.932       .  S
C1753      C1754   1.415       .  A
C1753     Br1759   1.934       .  S
C1754      C1755   1.412       .  A
C1755      C1756   1.401       .  A
C1755     Br1764   1.935       .  S
C1756     Br1760   1.932       .  S
C1765      C1766   1.411       .  A
C1765      C1770   1.408       .  A
C1766      C1767   1.405       .  A
C1766     Br1778   1.930       .  S
C1767      C1768   1.408       .  A
C1767     Br1782   1.930       .  S
C1768      C1771   1.481       .  S
C1768      C1769   1.410       .  A
C1769      C1770   1.405       .  A
C1769     Br1777   1.930       .  S
C1770     Br1781   1.930       .  S
C1771      C1772   1.409       .  A
C1771      C1776   1.408       .  A
C1772      C1773   1.406       .  A
C1772     Br1783   1.930       .  S
C1773      C1774   1.409       .  A
C1773     Br1779   1.927       .  S
C1774      C1775   1.413       .  A
C1775      C1776   1.406       .  A
C1775     Br1784   1.931       .  S
C1776     Br1780   1.931       .  S
C1785      C1786   1.416       .  A
C1785      C1790   1.416       .  A
C1786      C1787   1.403       .  A
C1786     Br1798   1.933       .  S
C1787      C1788   1.403       .  A
C1787     Br1802   1.932       .  S
C1788      C1791   1.471   1_554  S
C1788      C1789   1.406       .  A
C1789      C1790   1.403       .  A
C1789     Br1797   1.934       .  S
C1790     Br1801   1.935       .  S
C1791      C1792   1.406       .  A
C1791      C1796   1.405       .  A
C1792      C1793   1.404       .  A
C1792     Br1803   1.930   1_556  S
C1793      C1794   1.412       .  A
C1793     Br1799   1.931       .  S
C1794      C1795   1.415       .  A
C1795      C1796   1.400       .  A
C1795     Br1804   1.934       .  S
C1796     Br1800   1.933       .  S
C1805      C1806   1.414       .  A
C1805      C1810   1.417       .  A
C1806      C1807   1.408       .  A
C1806     Br1818   1.932       .  S
C1807      C1808   1.409       .  A
C1807     Br1822   1.931       .  S
C1808      C1811   1.488       .  S
C1808      C1809   1.408       .  A
C1809      C1810   1.410       .  A
C1809     Br1817   1.930       .  S
C1810     Br1821   1.933       .  S
C1811      C1812   1.409       .  A
C1811      C1816   1.410       .  A
C1812      C1813   1.409       .  A
C1812     Br1823   1.930       .  S
C1813      C1814   1.412       .  A
C1813     Br1819   1.931       .  S
C1814      C1815   1.410       .  A
C1815      C1816   1.409       .  A
C1815     Br1824   1.930       .  S
C1816     Br1820   1.928       .  S
C1825      C1826   1.415       .  A
C1825      C1830   1.417       .  A
C1826      C1827   1.404       .  A
C1826     Br1838   1.934       .  S
C1827      C1828   1.407       .  A
C1827     Br1842   1.933       .  S
C1828      C1831   1.474       .  S
C1828      C1829   1.404       .  A
C1829      C1830   1.404       .  A
C1829     Br1837   1.931       .  S
C1830     Br1841   1.934       .  S
C1831      C1832   1.408       .  A
C1831      C1836   1.407       .  A
C1832      C1833   1.404       .  A
C1832     Br1843   1.930       .  S
C1833      C1834   1.409       .  A
C1833     Br1839   1.930       .  S
C1834      C1835   1.411       .  A
C1835      C1836   1.403       .  A
C1835     Br1844   1.932       .  S
C1836     Br1840   1.930       .  S
C1845      C1846   1.425       .  A
C1845      C1850   1.428       .  A
C1846      C1847   1.405       .  A
C1846     Br1858   1.935       .  S
C1847      C1848   1.403       .  A
C1847     Br1862   1.936       .  S
C1848      C1851   1.476       .  S
C1848      C1849   1.401       .  A
C1849      C1850   1.406       .  A
C1849     Br1857   1.933       .  S
C1850     Br1861   1.938       .  S
C1851      C1852   1.408       .  A
C1851      C1856   1.408       .  A
C1852      C1853   1.401       .  A
C1852     Br1863   1.932       .  S
C1853      C1854   1.406       .  A
C1853     Br1859   1.926       .  S
C1854      C1855   1.409       .  A
C1855      C1856   1.406       .  A
C1855     Br1864   1.926       .  S
C1856     Br1860   1.928       .  S
C1865      C1866   1.414       .  A
C1865      C1870   1.412       .  A
C1866      C1867   1.402       .  A
C1866     Br1878   1.935       .  S
C1867      C1868   1.407       .  A
C1867     Br1882   1.933       .  S
C1868      C1871   1.475       .  S
C1868      C1869   1.407       .  A
C1869      C1870   1.406       .  A
C1869     Br1877   1.929       .  S
C1870     Br1881   1.931       .  S
C1871      C1872   1.408       .  A
C1871      C1876   1.408       .  A
C1872      C1873   1.402       .  A
C1872     Br1883   1.932       .  S
C1873      C1874   1.409       .  A
C1873     Br1879   1.931       .  S
C1874      C1875   1.409       .  A
C1875      C1876   1.405       .  A
C1875     Br1884   1.929       .  S
C1876     Br1880   1.930       .  S
C1885      C1886   1.411       .  A
C1885      C1890   1.411       .  A
C1886      C1887   1.401       .  A
C1886     Br1898   1.933       .  S
C1887      C1888   1.407       .  A
C1887     Br1902   1.932       .  S
C1888      C1891   1.467       .  S
C1888      C1889   1.404       .  A
C1889      C1890   1.400       .  A
C1889     Br1897   1.930       .  S
C1890     Br1901   1.932       .  S
C1891      C1892   1.407       .  A
C1891      C1896   1.404       .  A
C1892      C1893   1.401       .  A
C1892     Br1903   1.931       .  S
C1893      C1894   1.407       .  A
C1893     Br1899   1.931       .  S
C1894      C1895   1.411       .  A
C1895      C1896   1.401       .  A
C1895     Br1904   1.931       .  S
C1896     Br1900   1.931       .  S
C1905      C1906   1.416       .  A
C1905      C1910   1.414       .  A
C1906      C1907   1.410       .  A
C1906     Br1918   1.932       .  S
C1907      C1908   1.409       .  A
C1907     Br1922   1.931       .  S
C1908      C1911   1.485       .  S
C1908      C1909   1.407       .  A
C1909      C1910   1.405       .  A
C1909     Br1917   1.930       .  S
C1910     Br1921   1.933       .  S
C1911      C1912   1.408       .  A
C1911      C1916   1.411       .  A
C1912      C1913   1.407       .  A
C1912     Br1923   1.931       .  S
C1913      C1914   1.412       .  A
C1913     Br1919   1.930       .  S
C1914      C1915   1.409       .  A
C1915      C1916   1.408       .  A
C1915     Br1924   1.930       .  S
C1916     Br1920   1.929       .  S
C1925      C1926   1.414       .  A
C1925      C1930   1.417       .  A
C1926      C1927   1.406       .  A
C1926     Br1938   1.933       .  S
C1927      C1928   1.408       .  A
C1927     Br1942   1.932       .  S
C1928      C1931   1.478       .  S
C1928      C1929   1.405       .  A
C1929      C1930   1.406       .  A
C1929     Br1937   1.931       .  S
C1930     Br1941   1.933       .  S
C1931      C1932   1.408       .  A
C1931      C1936   1.408       .  A
C1932      C1933   1.404       .  A
C1932     Br1943   1.929       .  S
C1933      C1934   1.407       .  A
C1933     Br1939   1.925       .  S
C1934      C1935   1.410       .  A
C1935      C1936   1.406       .  A
C1935     Br1944   1.930       .  S
C1936     Br1940   1.929       .  S
C1945      C1946   1.414       .  A
C1945      C1950   1.415       .  A
C1946      C1947   1.405       .  A
C1946     Br1958   1.932       .  S
C1947      C1948   1.408   1_556  A
C1947     Br1962   1.932   1_556  S
C1948      C1951   1.481       .  S
C1948      C1949   1.407       .  A
C1949      C1950   1.407   1_554  A
C1949     Br1957   1.930       .  S
C1950     Br1961   1.932       .  S
C1951      C1952   1.406       .  A
C1951      C1956   1.404       .  A
C1952      C1953   1.409       .  A
C1952     Br1963   1.933       .  S
C1953      C1954   1.422       .  A
C1953     Br1959   1.933       .  S
C1954      C1955   1.421       .  A
C1955      C1956   1.406       .  A
C1955     Br1964   1.935       .  S
C1956     Br1960   1.932       .  S
C1965      C1966   1.413       .  A
C1965      C1970   1.412       .  A
C1966      C1967   1.404       .  A
C1966     Br1978   1.932       .  S
C1967      C1968   1.405       .  A
C1967     Br1982   1.929   1_655  S
C1968      C1971   1.478   1_655  S
C1968      C1969   1.409       .  A
C1969      C1970   1.405       .  A
C1969     Br1977   1.931       .  S
C1970     Br1981   1.932       .  S
C1971      C1972   1.407       .  A
C1971      C1976   1.404       .  A
C1972      C1973   1.405       .  A
C1972     Br1983   1.933       .  S
C1973      C1974   1.416       .  A
C1973     Br1979   1.933       .  S
C1974      C1975   1.416       .  A
C1975      C1976   1.406       .  A
C1975     Br1984   1.932       .  S
C1976     Br1980   1.930       .  S
C1985      C1986   1.411       .  A
C1985      C1990   1.411       .  A
C1986      C1987   1.404       .  A
C1986     Br1998   1.931       .  S
C1987      C1988   1.407       .  A
C1987     Br2002   1.931       .  S
C1988      C1991   1.479       .  S
C1988      C1989   1.408       .  A
C1989      C1990   1.407       .  A
C1989     Br1997   1.930       .  S
C1990     Br2001   1.930       .  S
C1991      C1992   1.405       .  A
C1991      C1996   1.407       .  A
C1992      C1993   1.405       .  A
C1992     Br2003   1.931       .  S
C1993      C1994   1.417       .  A
C1993     Br1999   1.934       .  S
C1994      C1995   1.417       .  A
C1995      C1996   1.406       .  A
C1995     Br2004   1.934       .  S
C1996     Br2000   1.931       .  S
C2005      C2006   1.417       .  A
C2005      C2010   1.418       .  A
C2006      C2007   1.408       .  A
C2006     Br2018   1.933       .  S
C2007      C2008   1.407       .  A
C2007     Br2022   1.932       .  S
C2008      C2011   1.482       .  S
C2008      C2009   1.405       .  A
C2009      C2010   1.407       .  A
C2009     Br2017   1.931       .  S
C2010     Br2021   1.934       .  S
C2011      C2012   1.408       .  A
C2011      C2016   1.409       .  A
C2012      C2013   1.407       .  A
C2012     Br2023   1.930       .  S
C2013      C2014   1.413       .  A
C2013     Br2019   1.931       .  S
C2014      C2015   1.410       .  A
C2015      C2016   1.406       .  A
C2015     Br2024   1.931       .  S
C2016     Br2020   1.930       .  S
C2025      C2026   1.414       .  A
C2025      C2030   1.415       .  A
C2026      C2027   1.405       .  A
C2026     Br2038   1.931       .  S
C2027      C2028   1.405       .  A
C2027     Br2042   1.929       .  S
C2028      C2031   1.478       .  S
C2028      C2029   1.407       .  A
C2029      C2030   1.405       .  A
C2029     Br2037   1.932       .  S
C2030     Br2041   1.933       .  S
C2031      C2032   1.407       .  A
C2031      C2036   1.404       .  A
C2032      C2033   1.406       .  A
C2032     Br2043   1.932       .  S
C2033      C2034   1.417       .  A
C2033     Br2039   1.933       .  S
C2034      C2035   1.417       .  A
C2035      C2036   1.405       .  A
C2035     Br2044   1.933       .  S
C2036     Br2040   1.932       .  S
C2045      C2046   1.409       .  A
C2045      C2050   1.411       .  A
C2046      C2047   1.404       .  A
C2046     Br2058   1.931       .  S
C2047      C2048   1.408       .  A
C2047     Br2062   1.931       .  S
C2048      C2051   1.477       .  S
C2048      C2049   1.407       .  A
C2049      C2050   1.406       .  A
C2049     Br2057   1.930       .  S
C2050     Br2061   1.930       .  S
C2051      C2052   1.405       .  A
C2051      C2056   1.409       .  A
C2052      C2053   1.403       .  A
C2052     Br2063   1.930       .  S
C2053      C2054   1.413       .  A
C2053     Br2059   1.933       .  S
C2054      C2055   1.410       .  A
C2055      C2056   1.406       .  A
C2055     Br2064   1.931       .  S
C2056     Br2060   1.930       .  S
C2065      C2066   1.412       .  A
C2065      C2070   1.418       .  A
C2066      C2067   1.405       .  A
C2066     Br2078   1.931       .  S
C2067      C2068   1.409       .  A
C2067     Br2082   1.933       .  S
C2068      C2071   1.477       .  S
C2068      C2069   1.404       .  A
C2069      C2070   1.405       .  A
C2069     Br2077   1.931       .  S
C2070     Br2081   1.934       .  S
C2071      C2072   1.408       .  A
C2071      C2076   1.408       .  A
C2072      C2073   1.403       .  A
C2072     Br2083   1.929       .  S
C2073      C2074   1.408       .  A
C2073     Br2079   1.931       .  S
C2074      C2075   1.409       .  A
C2075      C2076   1.404       .  A
C2075     Br2084   1.931       .  S
C2076     Br2080   1.930       .  S
C2085      C2086   1.413       .  A
C2085      C2090   1.414       .  A
C2086      C2087   1.405       .  A
C2086     Br2098   1.932       .  S
C2087      C2088   1.407       .  A
C2087     Br2102   1.931       .  S
C2088      C2091   1.473       .  S
C2088      C2089   1.405       .  A
C2089      C2090   1.402       .  A
C2089     Br2097   1.931       .  S
C2090     Br2101   1.932       .  S
C2091      C2092   1.403       .  A
C2091      C2096   1.403       .  A
C2092      C2093   1.403       .  A
C2092     Br2103   1.935       .  S
C2093      C2094   1.423       .  A
C2093     Br2099   1.937       .  S
C2094      C2095   1.422       .  A
C2095      C2096   1.405       .  A
C2095     Br2104   1.935       .  S
C2096     Br2100   1.932       .  S
C2105      C2106   1.410       .  A
C2105      C2110   1.410       .  A
C2106      C2107   1.405       .  A
C2106     Br2118   1.931       .  S
C2107      C2108   1.408       .  A
C2107     Br2122   1.930       .  S
C2108      C2111   1.480       .  S
C2108      C2109   1.409       .  A
C2109      C2110   1.406       .  A
C2109     Br2117   1.930       .  S
C2110     Br2121   1.931       .  S
C2111      C2112   1.405       .  A
C2111      C2116   1.407       .  A
C2112      C2113   1.406       .  A
C2112     Br2123   1.932       .  S
C2113      C2114   1.418       .  A
C2113     Br2119   1.933       .  S
C2114      C2115   1.416       .  A
C2115      C2116   1.406       .  A
C2115     Br2124   1.934       .  S
C2116     Br2120   1.931       .  S
C2125      C2126   1.413       .  A
C2125      C2130   1.409       .  A
C2126      C2127   1.400       .  A
C2126     Br2138   1.932       .  S
C2127      C2128   1.404       .  A
C2127     Br2142   1.932       .  S
C2128      C2131   1.471       .  S
C2128      C2129   1.409       .  A
C2129      C2130   1.405       .  A
C2129     Br2137   1.929       .  S
C2130     Br2141   1.930       .  S
C2131      C2132   1.406       .  A
C2131      C2136   1.408       .  A
C2132      C2133   1.403       .  A
C2132     Br2143   1.930       .  S
C2133      C2134   1.410       .  A
C2133     Br2139   1.929       .  S
C2134      C2135   1.406       .  A
C2135      C2136   1.402       .  A
C2135     Br2144   1.929       .  S
C2136     Br2140   1.931       .  S
C2145      C2146   1.409       .  A
C2145      C2150   1.408       .  A
C2146      C2147   1.404       .  A
C2146     Br2158   1.931       .  S
C2147      C2148   1.407   1_565  A
C2147     Br2162   1.929       .  S
C2148      C2151   1.473       .  S
C2148      C2149   1.408       .  A
C2149      C2150   1.402   1_545  A
C2149     Br2157   1.932       .  S
C2150     Br2161   1.930       .  S
C2151      C2152   1.406       .  A
C2151      C2156   1.408       .  A
C2152      C2153   1.402       .  A
C2152     Br2163   1.931       .  S
C2153      C2154   1.411       .  A
C2153     Br2159   1.932       .  S
C2154      C2155   1.409       .  A
C2155      C2156   1.405       .  A
C2155     Br2164   1.930       .  S
C2156     Br2160   1.929       .  S
C2165      C2166   1.413       .  A
C2165      C2170   1.410       .  A
C2166      C2167   1.403       .  A
C2166     Br2178   1.934       .  S
C2167      C2168   1.410       .  A
C2167     Br2182   1.934       .  S
C2168      C2171   1.486       .  S
C2168      C2169   1.412       .  A
C2169      C2170   1.409       .  A
C2169     Br2177   1.931       .  S
C2170     Br2181   1.928       .  S
C2171      C2172   1.407       .  A
C2171      C2176   1.406       .  A
C2172      C2173   1.407       .  A
C2172     Br2183   1.934       .  S
C2173      C2174   1.421       .  A
C2173     Br2179   1.930       .  S
C2174      C2175   1.421       .  A
C2175      C2176   1.407       .  A
C2175     Br2184   1.924       .  S
C2176     Br2180   1.935       .  S
C2185      C2186   1.413       .  A
C2185      C2190   1.416       .  A
C2186      C2187   1.404       .  A
C2186     Br2198   1.933       .  S
C2187      C2188   1.407       .  A
C2187     Br2202   1.931       .  S
C2188      C2191   1.480       .  S
C2188      C2189   1.407       .  A
C2189      C2190   1.407       .  A
C2189     Br2197   1.931       .  S
C2190     Br2201   1.933       .  S
C2191      C2192   1.407       .  A
C2191      C2196   1.405       .  A
C2192      C2193   1.410       .  A
C2192     Br2203   1.930       .  S
C2193      C2194   1.418       .  A
C2193     Br2199   1.932       .  S
C2194      C2195   1.415       .  A
C2195      C2196   1.402       .  A
C2195     Br2204   1.924       .  S
C2196     Br2200   1.936       .  S
C2205      C2206   1.410       .  A
C2205      C2210   1.409       .  A
C2206      C2207   1.401       .  A
C2206     Br2218   1.928       .  S
C2207      C2208   1.407       .  A
C2207     Br2222   1.932       .  S
C2208      C2211   1.480       .  S
C2208      C2209   1.410       .  A
C2209      C2210   1.409       .  A
C2209     Br2217   1.928       .  S
C2210     Br2221   1.926       .  S
C2211      C2212   1.408       .  A
C2211      C2216   1.411       .  A
C2212      C2213   1.407       .  A
C2212     Br2223   1.930       .  S
C2213      C2214   1.413       .  A
C2213     Br2219   1.931       .  S
C2214      C2215   1.408       .  A
C2215      C2216   1.404       .  A
C2215     Br2224   1.932       .  S
C2216     Br2220   1.932       .  S
C2225      C2226   1.422       .  A
C2225      C2230   1.426       .  A
C2226      C2227   1.407       .  A
C2226     Br2238   1.933       .  S
C2227      C2228   1.404       .  A
C2227     Br2242   1.931       .  S
C2228      C2231   1.481       .  S
C2228      C2229   1.403       .  A
C2229      C2230   1.407       .  A
C2229     Br2237   1.936       .  S
C2230     Br2241   1.933       .  S
C2231      C2232   1.406       .  A
C2231      C2236   1.406       .  A
C2232      C2233   1.404       .  A
C2232     Br2243   1.933       .  S
C2233      C2234   1.415       .  A
C2233     Br2239   1.933       .  S
C2234      C2235   1.417       .  A
C2235      C2236   1.409       .  A
C2235     Br2244   1.931       .  S
C2236     Br2240   1.930       .  S
C2245      C2246   1.422       .  A
C2245      C2250   1.425       .  A
C2246      C2247   1.409       .  A
C2246     Br2258   1.931       .  S
C2247      C2248   1.406       .  A
C2247     Br2262   1.933       .  S
C2248      C2251   1.486       .  S
C2248      C2249   1.406       .  A
C2249      C2250   1.408       .  A
C2249     Br2257   1.936       .  S
C2250     Br2261   1.936       .  S
C2251      C2252   1.411       .  A
C2251      C2256   1.409       .  A
C2252      C2253   1.410       .  A
C2252     Br2263   1.927       .  S
C2253      C2254   1.408       .  A
C2253     Br2259   1.928       .  S
C2254      C2255   1.411       .  A
C2255      C2256   1.403       .  A
C2255     Br2264   1.930       .  S
C2256     Br2260   1.932       .  S
C2265      C2266   1.411       .  A
C2265      C2270   1.410       .  A
C2266      C2267   1.410       .  A
C2266     Br2278   1.930       .  S
C2267      C2268   1.412       .  A
C2267     Br2282   1.929       .  S
C2268      C2271   1.488       .  S
C2268      C2269   1.409       .  A
C2269      C2270   1.405       .  A
C2269     Br2277   1.931       .  S
C2270     Br2281   1.931       .  S
C2271      C2272   1.411       .  A
C2271      C2276   1.408       .  A
C2272      C2273   1.407       .  A
C2272     Br2283   1.934       .  S
C2273      C2274   1.415       .  A
C2273     Br2279   1.934       .  S
C2274      C2275   1.419       .  A
C2275      C2276   1.410       .  A
C2275     Br2284   1.934       .  S
C2276     Br2280   1.931       .  S
C2285      C2286   1.419       .  A
C2285      C2290   1.418       .  A
C2286      C2287   1.409       .  A
C2286     Br2298   1.934       .  S
C2287      C2288   1.407   1_655  A
C2287     Br2302   1.932   1_655  S
C2288      C2291   1.488       .  S
C2288      C2289   1.408   1_455  A
C2289      C2290   1.410       .  A
C2289     Br2297   1.933       .  S
C2290     Br2301   1.927       .  S
C2291      C2292   1.408       .  A
C2291      C2296   1.410       .  A
C2292      C2293   1.408       .  A
C2292     Br2303   1.930       .  S
C2293      C2294   1.414       .  A
C2293     Br2299   1.932       .  S
C2294      C2295   1.416       .  A
C2295      C2296   1.409       .  A
C2295     Br2304   1.933       .  S
C2296     Br2300   1.932       .  S
C2305      C2306   1.409       .  A
C2305      C2310   1.412       .  A
C2306      C2307   1.407       .  A
C2306     Br2318   1.928       .  S
C2307      C2308   1.409       .  A
C2307     Br2322   1.930       .  S
C2308      C2311   1.478       .  S
C2308      C2309   1.407       .  A
C2309      C2310   1.405       .  A
C2309     Br2317   1.931       .  S
C2310     Br2321   1.930       .  S
C2311      C2312   1.407       .  A
C2311      C2316   1.408       .  A
C2312      C2313   1.406       .  A
C2312     Br2323   1.929       .  S
C2313      C2314   1.413       .  A
C2313     Br2319   1.932       .  S
C2314      C2315   1.410       .  A
C2315      C2316   1.403       .  A
C2315     Br2324   1.932       .  S
C2316     Br2320   1.932       .  S
C2325      C2326   1.411       .  A
C2325      C2330   1.406       .  A
C2326      C2327   1.408       .  A
C2326     Br2338   1.929       .  S
C2327      C2328   1.409       .  A
C2327     Br2342   1.928       .  S
C2328      C2331   1.481       .  S
C2328      C2329   1.408       .  A
C2329      C2330   1.403       .  A
C2329     Br2337   1.931       .  S
C2330     Br2341   1.923       .  S
C2331      C2332   1.405       .  A
C2331      C2336   1.407       .  A
C2332      C2333   1.405       .  A
C2332     Br2343   1.934       .  S
C2333      C2334   1.420       .  A
C2333     Br2339   1.935       .  S
C2334      C2335   1.419       .  A
C2335      C2336   1.409       .  A
C2335     Br2344   1.933       .  S
C2336     Br2340   1.931       .  S
C2345      C2346   1.422       .  A
C2345      C2350   1.420   1_565  A
C2346      C2347   1.409   1_565  A
C2346     Br2358   1.935       .  S
C2347      C2348   1.407       .  A
C2347     Br2362   1.934       .  S
C2348      C2351   1.492       .  S
C2348      C2349   1.408       .  A
C2349      C2350   1.413       .  A
C2349     Br2357   1.930       .  S
C2350     Br2361   1.932   1_545  S
C2351      C2352   1.409       .  A
C2351      C2356   1.409       .  A
C2352      C2353   1.409       .  A
C2352     Br2363   1.932       .  S
C2353      C2354   1.417       .  A
C2353     Br2359   1.933       .  S
C2354      C2355   1.416       .  A
C2355      C2356   1.411       .  A
C2355     Br2364   1.932       .  S
C2356     Br2360   1.929       .  S
C2365      C2366   1.414       .  A
C2365      C2370   1.411       .  A
C2366      C2367   1.406       .  A
C2366     Br2378   1.932       .  S
C2367      C2368   1.406       .  A
C2367     Br2382   1.930       .  S
C2368      C2371   1.481       .  S
C2368      C2369   1.410       .  A
C2369      C2370   1.407       .  A
C2369     Br2377   1.932       .  S
C2370     Br2381   1.931       .  S
C2371      C2372   1.409       .  A
C2371      C2376   1.408       .  A
C2372      C2373   1.405       .  A
C2372     Br2383   1.929       .  S
C2373      C2374   1.408       .  A
C2373     Br2379   1.930       .  S
C2374      C2375   1.411       .  A
C2375      C2376   1.406       .  A
C2375     Br2384   1.930       .  S
C2376     Br2380   1.930       .  S
C2385      C2386   1.420       .  A
C2385      C2390   1.420       .  A
C2386      C2387   1.407       .  A
C2386     Br2398   1.933       .  S
C2387      C2388   1.407       .  A
C2387     Br2402   1.933       .  S
C2388      C2391   1.477   1_556  S
C2388      C2389   1.404       .  A
C2389      C2390   1.402       .  A
C2389     Br2397   1.934   1_556  S
C2390     Br2401   1.936       .  S
C2391      C2392   1.408       .  A
C2391      C2396   1.409       .  A
C2392      C2393   1.404       .  A
C2392     Br2403   1.930       .  S
C2393      C2394   1.411       .  A
C2393     Br2399   1.931       .  S
C2394      C2395   1.412       .  A
C2395      C2396   1.403       .  A
C2395     Br2404   1.933       .  S
C2396     Br2400   1.934       .  S
C2405      C2406   1.411       .  A
C2405      C2410   1.410       .  A
C2406      C2407   1.410       .  A
C2406     Br2418   1.930       .  S
C2407      C2408   1.411       .  A
C2407     Br2422   1.929       .  S
C2408      C2411   1.490       .  S
C2408      C2409   1.410       .  A
C2409      C2410   1.408       .  A
C2409     Br2417   1.929       .  S
C2410     Br2421   1.930       .  S
C2411      C2412   1.408       .  A
C2411      C2416   1.409       .  A
C2412      C2413   1.412       .  A
C2412     Br2423   1.930       .  S
C2413      C2414   1.417       .  A
C2413     Br2419   1.931       .  S
C2414      C2415   1.416       .  A
C2415      C2416   1.409       .  A
C2415     Br2424   1.934       .  S
C2416     Br2420   1.932       .  S
C2425      C2426   1.415       .  A
C2425      C2430   1.416       .  A
C2426      C2427   1.405       .  A
C2426     Br2438   1.934       .  S
C2427      C2428   1.406       .  A
C2427     Br2442   1.931       .  S
C2428      C2431   1.475       .  S
C2428      C2429   1.404       .  A
C2429      C2430   1.404       .  A
C2429     Br2437   1.932       .  S
C2430     Br2441   1.933       .  S
C2431      C2432   1.407       .  A
C2431      C2436   1.407       .  A
C2432      C2433   1.404       .  A
C2432     Br2443   1.931       .  S
C2433      C2434   1.411       .  A
C2433     Br2439   1.931       .  S
C2434      C2435   1.410       .  A
C2435      C2436   1.404       .  A
C2435     Br2444   1.931       .  S
C2436     Br2440   1.929       .  S
C2445      C2446   1.418       .  A
C2445      C2450   1.419       .  A
C2446      C2447   1.410       .  A
C2446     Br2458   1.932       .  S
C2447      C2448   1.407       .  A
C2447     Br2462   1.930       .  S
C2448      C2451   1.486       .  S
C2448      C2449   1.406       .  A
C2449      C2450   1.407       .  A
C2449     Br2457   1.933       .  S
C2450     Br2461   1.935       .  S
C2451      C2452   1.406       .  A
C2451      C2456   1.403       .  A
C2452      C2453   1.411       .  A
C2452     Br2463   1.933       .  S
C2453      C2454   1.423       .  A
C2453     Br2459   1.933       .  S
C2454      C2455   1.424       .  A
C2455      C2456   1.408       .  A
C2455     Br2464   1.936       .  S
C2456     Br2460   1.932       .  S
C2465      C2466   1.410       .  A
C2465      C2470   1.412       .  A
C2466      C2467   1.407       .  A
C2466     Br2478   1.929       .  S
C2467      C2468   1.409       .  A
C2467     Br2482   1.930       .  S
C2468      C2471   1.476       .  S
C2468      C2469   1.405       .  A
C2469      C2470   1.401       .  A
C2469     Br2477   1.933       .  S
C2470     Br2481   1.929       .  S
C2471      C2472   1.407       .  A
C2471      C2476   1.407       .  A
C2472      C2473   1.404       .  A
C2472     Br2483   1.930       .  S
C2473      C2474   1.412       .  A
C2473     Br2479   1.933       .  S
C2474      C2475   1.413       .  A
C2475      C2476   1.403       .  A
C2475     Br2484   1.934       .  S
C2476     Br2480   1.932       .  S
C2485      C2486   1.412       .  A
C2485      C2490   1.416       .  A
C2486      C2487   1.404       .  A
C2486     Br2498   1.933       .  S
C2487      C2488   1.409       .  A
C2487     Br2502   1.932       .  S
C2488      C2491   1.483       .  S
C2488      C2489   1.409       .  A
C2489      C2490   1.408       .  A
C2489     Br2497   1.931       .  S
C2490     Br2501   1.933       .  S
C2491      C2492   1.407       .  A
C2491      C2496   1.410       .  A
C2492      C2493   1.407       .  A
C2492     Br2503   1.931       .  S
C2493      C2494   1.415       .  A
C2493     Br2499   1.931       .  S
C2494      C2495   1.414       .  A
C2495      C2496   1.406       .  A
C2495     Br2504   1.933       .  S
C2496     Br2500   1.933       .  S
C2505      C2506   1.411       .  A
C2505      C2510   1.413       .  A
C2506      C2507   1.405       .  A
C2506     Br2518   1.931       .  S
C2507      C2508   1.408       .  A
C2507     Br2522   1.930       .  S
C2508      C2511   1.482       .  S
C2508      C2509   1.408       .  A
C2509      C2510   1.407       .  A
C2509     Br2517   1.930       .  S
C2510     Br2521   1.931       .  S
C2511      C2512   1.407       .  A
C2511      C2516   1.406       .  A
C2512      C2513   1.407       .  A
C2512     Br2523   1.932       .  S
C2513      C2514   1.417       .  A
C2513     Br2519   1.934       .  S
C2514      C2515   1.416       .  A
C2515      C2516   1.407       .  A
C2515     Br2524   1.933       .  S
C2516     Br2520   1.930       .  S
C2525      C2526   1.418       .  A
C2525      C2530   1.413       .  A
C2526      C2527   1.407       .  A
C2526     Br2538   1.934       .  S
C2527      C2528   1.406       .  A
C2527     Br2542   1.930       .  S
C2528      C2531   1.483       .  S
C2528      C2529   1.409       .  A
C2529      C2530   1.407       .  A
C2529     Br2537   1.931       .  S
C2530     Br2541   1.932       .  S
C2531      C2532   1.409       .  A
C2531      C2536   1.408       .  A
C2532      C2533   1.408       .  A
C2532     Br2543   1.929       .  S
C2533      C2534   1.410       .  A
C2533     Br2539   1.929       .  S
C2534      C2535   1.411       .  A
C2535      C2536   1.406       .  A
C2535     Br2544   1.931       .  S
C2536     Br2540   1.930       .  S
C2545      C2546   1.416       .  A
C2545      C2550   1.416       .  A
C2546      C2547   1.410       .  A
C2546     Br2558   1.930       .  S
C2547      C2548   1.408   1_565  A
C2547     Br2562   1.931       .  S
C2548      C2551   1.483       .  S
C2548      C2549   1.405   1_545  A
C2549      C2550   1.405       .  A
C2549     Br2557   1.930   1_565  S
C2550     Br2561   1.932       .  S
C2551      C2552   1.406       .  A
C2551      C2556   1.408       .  A
C2552      C2553   1.407       .  A
C2552     Br2563   1.929       .  S
C2553      C2554   1.415       .  A
C2553     Br2559   1.931       .  S
C2554      C2555   1.415       .  A
C2555      C2556   1.407       .  A
C2555     Br2564   1.933       .  S
C2556     Br2560   1.932       .  S
C2565      C2566   1.413       .  A
C2565      C2570   1.418       .  A
C2566      C2567   1.406       .  A
C2566     Br2578   1.931       .  S
C2567      C2568   1.408       .  A
C2567     Br2582   1.930       .  S
C2568      C2571   1.484       .  S
C2568      C2569   1.408       .  A
C2569      C2570   1.407       .  A
C2569     Br2577   1.932       .  S
C2570     Br2581   1.935       .  S
C2571      C2572   1.406       .  A
C2571      C2576   1.407       .  A
C2572      C2573   1.407       .  A
C2572     Br2583   1.932       .  S
C2573      C2574   1.418       .  A
C2573     Br2579   1.932       .  S
C2574      C2575   1.419       .  A
C2575      C2576   1.408       .  A
C2575     Br2584   1.934       .  S
C2576     Br2580   1.933       .  S
C2585      C2586   1.414       .  A
C2585      C2590   1.411       .  A
C2586      C2587   1.410       .  A
C2586     Br2598   1.931       .  S
C2587      C2588   1.411       .  A
C2587     Br2602   1.931       .  S
C2588      C2591   1.491       .  S
C2588      C2589   1.410       .  A
C2589      C2590   1.408       .  A
C2589     Br2597   1.930       .  S
C2590     Br2601   1.930       .  S
C2591      C2592   1.412       .  A
C2591      C2596   1.407       .  A
C2592      C2593   1.411       .  A
C2592     Br2603   1.930       .  S
C2593      C2594   1.414       .  A
C2593     Br2599   1.931       .  S
C2594      C2595   1.416       .  A
C2595      C2596   1.408       .  A
C2595     Br2604   1.934       .  S
C2596     Br2600   1.931       .  S
C2605      C2606   1.422       .  A
C2605      C2610   1.421       .  A
C2606      C2607   1.407       .  A
C2606     Br2618   1.935       .  S
C2607      C2608   1.404       .  A
C2607     Br2622   1.931       .  S
C2608      C2611   1.484       .  S
C2608      C2609   1.406       .  A
C2609      C2610   1.409       .  A
C2609     Br2617   1.933       .  S
C2610     Br2621   1.931       .  S
C2611      C2612   1.408   1_554  A
C2611      C2616   1.408   1_554  A
C2612      C2613   1.407       .  A
C2612     Br2623   1.931   1_556  S
C2613      C2614   1.413       .  A
C2613     Br2619   1.932       .  S
C2614      C2615   1.413       .  A
C2615      C2616   1.408       .  A
C2615     Br2624   1.931       .  S
C2616     Br2620   1.929   1_556  S
C2625      C2626   1.418       .  A
C2625      C2630   1.420       .  A
C2626      C2627   1.407       .  A
C2626     Br2638   1.932       .  S
C2627      C2628   1.405       .  A
C2627     Br2642   1.931       .  S
C2628      C2631   1.478       .  S
C2628      C2629   1.405       .  A
C2629      C2630   1.404       .  A
C2629     Br2637   1.935       .  S
C2630     Br2641   1.936       .  S
C2631      C2632   1.407       .  A
C2631      C2636   1.409       .  A
C2632      C2633   1.405       .  A
C2632     Br2643   1.930       .  S
C2633      C2634   1.412       .  A
C2633     Br2639   1.932       .  S
C2634      C2635   1.411       .  A
C2635      C2636   1.404       .  A
C2635     Br2644   1.933       .  S
C2636     Br2640   1.932       .  S
C2645      C2646   1.414       .  A
C2645      C2650   1.412       .  A
C2646      C2647   1.403       .  A
C2646     Br2658   1.933       .  S
C2647      C2648   1.405       .  A
C2647     Br2662   1.931       .  S
C2648      C2651   1.475       .  S
C2648      C2649   1.408       .  A
C2649      C2650   1.406       .  A
C2649     Br2657   1.931       .  S
C2650     Br2661   1.932       .  S
C2651      C2652   1.408       .  A
C2651      C2656   1.408       .  A
C2652      C2653   1.403       .  A
C2652     Br2663   1.929       .  S
C2653      C2654   1.408       .  A
C2653     Br2659   1.931       .  S
C2654      C2655   1.409       .  A
C2655      C2656   1.404       .  A
C2655     Br2664   1.931       .  S
C2656     Br2660   1.930       .  S
C2665      C2666   1.409       .  A
C2665      C2670   1.409       .  A
C2666      C2667   1.405       .  A
C2666     Br2678   1.930       .  S
C2667      C2668   1.408       .  A
C2667     Br2682   1.930       .  S
C2668      C2671   1.480       .  S
C2668      C2669   1.409       .  A
C2669      C2670   1.406       .  A
C2669     Br2677   1.929       .  S
C2670     Br2681   1.930       .  S
C2671      C2672   1.408       .  A
C2671      C2676   1.406       .  A
C2672      C2673   1.406       .  A
C2672     Br2683   1.932       .  S
C2673      C2674   1.415       .  A
C2673     Br2679   1.933       .  S
C2674      C2675   1.414       .  A
C2675      C2676   1.406       .  A
C2675     Br2684   1.932       .  S
C2676     Br2680   1.929       .  S
C2685      C2686   1.411       .  A
C2685      C2690   1.411       .  A
C2686      C2687   1.405       .  A
C2686     Br2698   1.930       .  S
C2687      C2688   1.407   1_655  A
C2687     Br2702   1.929   1_655  S
C2688      C2691   1.478       .  S
C2688      C2689   1.409   1_455  A
C2689      C2690   1.405       .  A
C2689     Br2697   1.932   1_655  S
C2690     Br2701   1.931       .  S
C2691      C2692   1.405       .  A
C2691      C2696   1.404       .  A
C2692      C2693   1.407       .  A
C2692     Br2703   1.933       .  S
C2693      C2694   1.422       .  A
C2693     Br2699   1.934       .  S
C2694      C2695   1.421       .  A
C2695      C2696   1.405       .  A
C2695     Br2704   1.935       .  S
C2696     Br2700   1.932       .  S
C2705      C2706   1.411       .  A
C2705      C2710   1.409       .  A
C2706      C2707   1.404       .  A
C2706     Br2718   1.931       .  S
C2707      C2708   1.407       .  A
C2707     Br2722   1.930       .  S
C2708      C2711   1.476       .  S
C2708      C2709   1.407       .  A
C2709      C2710   1.403       .  A
C2709     Br2717   1.931       .  S
C2710     Br2721   1.929       .  S
C2711      C2712   1.404       .  A
C2711      C2716   1.409       .  A
C2712      C2713   1.403       .  A
C2712     Br2723   1.932       .  S
C2713      C2714   1.417       .  A
C2713     Br2719   1.934       .  S
C2714      C2715   1.410       .  A
C2715      C2716   1.405       .  A
C2715     Br2724   1.931       .  S
C2716     Br2720   1.931       .  S
C2725      C2726   1.416       .  A
C2725      C2730   1.418       .  A
C2726      C2727   1.408       .  A
C2726     Br2738   1.932       .  S
C2727      C2728   1.409       .  A
C2727     Br2742   1.932       .  S
C2728      C2731   1.486       .  S
C2728      C2729   1.406       .  A
C2729      C2730   1.408       .  A
C2729     Br2737   1.930       .  S
C2730     Br2741   1.934       .  S
C2731      C2732   1.408       .  A
C2731      C2736   1.405       .  A
C2732      C2733   1.409       .  A
C2732     Br2743   1.932       .  S
C2733      C2734   1.417       .  A
C2733     Br2739   1.932       .  S
C2734      C2735   1.420       .  A
C2735      C2736   1.408       .  A
C2735     Br2744   1.934       .  S
C2736     Br2740   1.931       .  S
C2745      C2746   1.413       .  A
C2745      C2750   1.416       .  A
C2746      C2747   1.406       .  A
C2746     Br2758   1.932       .  S
C2747      C2748   1.409       .  A
C2747     Br2762   1.932       .  S
C2748      C2751   1.479       .  S
C2748      C2749   1.405       .  A
C2749      C2750   1.405       .  A
C2749     Br2757   1.930       .  S
C2750     Br2761   1.934       .  S
C2751      C2752   1.409       .  A
C2751      C2756   1.408       .  A
C2752      C2753   1.406       .  A
C2752     Br2763   1.930       .  S
C2753      C2754   1.408       .  A
C2753     Br2759   1.930       .  S
C2754      C2755   1.410       .  A
C2755      C2756   1.405       .  A
C2755     Br2764   1.931       .  S
C2756     Br2760   1.930       .  S
C2765      C2766   1.416       .  A
C2765      C2770   1.423       .  A
C2766      C2767   1.408       .  A
C2766     Br2778   1.931       .  S
C2767      C2768   1.408       .  A
C2767     Br2782   1.932       .  S
C2768      C2771   1.484       .  S
C2768      C2769   1.404       .  A
C2769      C2770   1.408       .  A
C2769     Br2777   1.931       .  S
C2770     Br2781   1.935       .  S
C2771      C2772   1.409       .  A
C2771      C2776   1.406       .  A
C2772      C2773   1.407       .  A
C2772     Br2783   1.930       .  S
C2773      C2774   1.411       .  A
C2773     Br2779   1.930       .  S
C2774      C2775   1.416       .  A
C2775      C2776   1.408       .  A
C2775     Br2784   1.932       .  S
C2776     Br2780   1.930       .  S
C2785      C2786   1.408       .  A
C2785      C2790   1.408       .  A
C2786      C2787   1.405       .  A
C2786     Br2798   1.931       .  S
C2787      C2788   1.411       .  A
C2787     Br2802   1.931       .  S
C2788      C2791   1.483       .  S
C2788      C2789   1.409       .  A
C2789      C2790   1.405       .  A
C2789     Br2797   1.929       .  S
C2790     Br2801   1.930       .  S
C2791      C2792   1.407       .  A
C2791      C2796   1.404       .  A
C2792      C2793   1.406       .  A
C2792     Br2803   1.933       .  S
C2793      C2794   1.419       .  A
C2793     Br2799   1.935       .  S
C2794      C2795   1.426       .  A
C2795      C2796   1.409       .  A
C2795     Br2804   1.936       .  S
C2796     Br2800   1.934       .  S
C2805      C2806   1.411       .  A
C2805      C2810   1.414       .  A
C2806      C2807   1.408       .  A
C2806     Br2818   1.931       .  S
C2807      C2808   1.409       .  A
C2807     Br2822   1.929       .  S
C2808      C2811   1.479       .  S
C2808      C2809   1.406       .  A
C2809      C2810   1.404       .  A
C2809     Br2817   1.932       .  S
C2810     Br2821   1.932       .  S
C2811      C2812   1.410       .  A
C2811      C2816   1.407       .  A
C2812      C2813   1.408       .  A
C2812     Br2823   1.928       .  S
C2813      C2814   1.409       .  A
C2813     Br2819   1.930       .  S
C2814      C2815   1.412       .  A
C2815      C2816   1.403       .  A
C2815     Br2824   1.933       .  S
C2816     Br2820   1.931       .  S
C2825      C2826   1.407       .  A
C2825      C2830   1.408       .  A
C2826      C2827   1.402       .  A
C2826     Br2838   1.926       .  S
C2827      C2828   1.409       .  A
C2827     Br2842   1.933       .  S
C2828      C2831   1.481       .  S
C2828      C2829   1.411       .  A
C2829      C2830   1.408       .  A
C2829     Br2837   1.929       .  S
C2830     Br2841   1.930       .  S
C2831      C2832   1.407       .  A
C2831      C2836   1.410       .  A
C2832      C2833   1.406       .  A
C2832     Br2843   1.932       .  S
C2833      C2834   1.415       .  A
C2833     Br2839   1.933       .  S
C2834      C2835   1.411   1_565  A
C2835      C2836   1.405   1_545  A
C2835     Br2844   1.932       .  S
C2836     Br2840   1.932   1_565  S
C2845      C2846   1.408       .  A
C2845      C2850   1.408       .  A
C2846      C2847   1.405       .  A
C2846     Br2858   1.931       .  S
C2847      C2848   1.408       .  A
C2847     Br2862   1.927       .  S
C2848      C2851   1.476       .  S
C2848      C2849   1.408       .  A
C2849      C2850   1.402       .  A
C2849     Br2857   1.930       .  S
C2850     Br2861   1.931       .  S
C2851      C2852   1.409       .  A
C2851      C2856   1.406       .  A
C2852      C2853   1.403       .  A
C2852     Br2863   1.933       .  S
C2853      C2854   1.408       .  A
C2853     Br2859   1.930       .  S
C2854      C2855   1.413       .  A
C2855      C2856   1.407       .  A
C2855     Br2864   1.929       .  S
C2856     Br2860   1.929       .  S
C2865      C2866   1.415       .  A
C2865      C2870   1.413       .  A
C2866      C2867   1.410       .  A
C2866     Br2878   1.931       .  S
C2867      C2868   1.408       .  A
C2867     Br2882   1.929       .  S
C2868      C2871   1.489       .  S
C2868      C2869   1.410       .  A
C2869      C2870   1.409       .  A
C2869     Br2877   1.931       .  S
C2870     Br2881   1.932       .  S
C2871      C2872   1.410       .  A
C2871      C2876   1.409       .  A
C2872      C2873   1.409       .  A
C2872     Br2883   1.928       .  S
C2873      C2874   1.408       .  A
C2873     Br2879   1.928       .  S
C2874      C2875   1.412       .  A
C2875      C2876   1.409       .  A
C2875     Br2884   1.929       .  S
C2876     Br2880   1.929       .  S
C2885      C2886   1.415       .  A
C2885      C2890   1.417       .  A
C2886      C2887   1.404       .  A
C2886     Br2898   1.933       .  S
C2887      C2888   1.406       .  A
C2887     Br2902   1.933       .  S
C2888      C2891   1.476       .  S
C2888      C2889   1.405       .  A
C2889      C2890   1.405       .  A
C2889     Br2897   1.932       .  S
C2890     Br2901   1.934       .  S
C2891      C2892   1.400       .  A
C2891      C2896   1.402       .  A
C2892      C2893   1.405       .  A
C2892     Br2903   1.936       .  S
C2893      C2894   1.431       .  A
C2893     Br2899   1.938       .  S
C2894      C2895   1.426       .  A
C2895      C2896   1.407       .  A
C2895     Br2904   1.935       .  S
C2896     Br2900   1.935       .  S
C2905      C2906   1.413       .  A
C2905      C2910   1.414       .  A
C2906      C2907   1.409       .  A
C2906     Br2918   1.930       .  S
C2907      C2908   1.410       .  A
C2907     Br2922   1.930       .  S
C2908      C2911   1.484       .  S
C2908      C2909   1.408       .  A
C2909      C2910   1.404       .  A
C2909     Br2917   1.934       .  S
C2910     Br2921   1.935       .  S
C2911      C2912   1.407       .  A
C2911      C2916   1.409       .  A
C2912      C2913   1.407       .  A
C2912     Br2923   1.932       .  S
C2913      C2914   1.416       .  A
C2913     Br2919   1.934       .  S
C2914      C2915   1.416       .  A
C2915      C2916   1.407       .  A
C2915     Br2924   1.934   1_655  S
C2916     Br2920   1.932       .  S
C2925      C2926   1.409       .  A
C2925      C2930   1.410       .  A
C2926      C2927   1.407       .  A
C2926     Br2938   1.931       .  S
C2927      C2928   1.409       .  A
C2927     Br2942   1.928       .  S
C2928      C2931   1.478       .  S
C2928      C2929   1.408       .  A
C2929      C2930   1.402       .  A
C2929     Br2937   1.931       .  S
C2930     Br2941   1.933       .  S
C2931      C2932   1.407       .  A
C2931      C2936   1.409       .  A
C2932      C2933   1.402       .  A
C2932     Br2943   1.934       .  S
C2933      C2934   1.412       .  A
C2933     Br2939   1.931       .  S
C2934      C2935   1.410       .  A
C2935      C2936   1.409       .  A
C2935     Br2944   1.929       .  S
C2936     Br2940   1.928       .  S
C2945      C2946   1.422       .  A
C2945      C2950   1.421       .  A
C2946      C2947   1.406       .  A
C2946     Br2958   1.934   1_565  S
C2947      C2948   1.404       .  A
C2947     Br2962   1.933       .  S
C2948      C2951   1.488       .  S
C2948      C2949   1.407       .  A
C2949      C2950   1.414       .  A
C2949     Br2957   1.930       .  S
C2950     Br2961   1.930       .  S
C2951      C2952   1.409       .  A
C2951      C2956   1.409       .  A
C2952      C2953   1.409       .  A
C2952     Br2963   1.929       .  S
C2953      C2954   1.414       .  A
C2953     Br2959   1.932       .  S
C2954      C2955   1.413       .  A
C2955      C2956   1.409       .  A
C2955     Br2964   1.931       .  S
C2956     Br2960   1.930       .  S
C2965      C2966   1.412       .  A
C2965      C2970   1.413       .  A
C2966      C2967   1.405       .  A
C2966     Br2978   1.932       .  S
C2967      C2968   1.408       .  A
C2967     Br2982   1.930       .  S
C2968      C2971   1.482       .  S
C2968      C2969   1.408       .  A
C2969      C2970   1.406       .  A
C2969     Br2977   1.930       .  S
C2970     Br2981   1.932       .  S
C2971      C2972   1.405       .  A
C2971      C2976   1.403       .  A
C2972      C2973   1.410       .  A
C2972     Br2983   1.933       .  S
C2973      C2974   1.423       .  A
C2973     Br2979   1.933       .  S
C2974      C2975   1.426       .  A
C2975      C2976   1.406       .  A
C2975     Br2984   1.936       .  S
C2976     Br2980   1.935       .  S
C2985      C2986   1.417       .  A
C2985      C2990   1.420       .  A
C2986      C2987   1.401       .  A
C2986     Br2998   1.922       .  S
C2987      C2988   1.402       .  A
C2987     Br3002   1.936       .  S
C2988      C2991   1.477       .  S
C2988      C2989   1.405       .  A
C2989      C2990   1.409       .  A
C2989     Br2997   1.931       .  S
C2990     Br3001   1.933       .  S
C2991      C2992   1.401       .  A
C2991      C2996   1.403       .  A
C2992      C2993   1.407       .  A
C2992     Br3003   1.934       .  S
C2993      C2994   1.430       .  A
C2993     Br2999   1.938       .  S
C2994      C2995   1.427       .  A
C2995      C2996   1.406       .  A
C2995     Br3004   1.936       .  S
C2996     Br3000   1.937       .  S
C3005      C3006   1.412       .  A
C3005      C3010   1.414       .  A
C3006      C3007   1.409       .  A
C3006     Br3018   1.931       .  S
C3007      C3008   1.410       .  A
C3007     Br3022   1.930       .  S
C3008      C3011   1.488       .  S
C3008      C3009   1.409       .  A
C3009      C3010   1.408       .  A
C3009     Br3017   1.930       .  S
C3010     Br3021   1.932       .  S
C3011      C3012   1.407       .  A
C3011      C3016   1.407       .  A
C3012      C3013   1.412       .  A
C3012     Br3023   1.932       .  S
C3013      C3014   1.421       .  A
C3013     Br3019   1.931       .  S
C3014      C3015   1.419       .  A
C3015      C3016   1.407       .  A
C3015     Br3024   1.935       .  S
C3016     Br3020   1.932       .  S
C3025      C3026   1.414       .  A
C3025      C3030   1.413       .  A
C3026      C3027   1.402       .  A
C3026     Br3038   1.934       .  S
C3027      C3028   1.406       .  A
C3027     Br3042   1.933       .  S
C3028      C3031   1.474       .  S
C3028      C3029   1.407       .  A
C3029      C3030   1.406       .  A
C3029     Br3037   1.929       .  S
C3030     Br3041   1.931       .  S
C3031      C3032   1.409       .  A
C3031      C3036   1.407       .  A
C3032      C3033   1.406       .  A
C3032     Br3043   1.928       .  S
C3033      C3034   1.409       .  A
C3033     Br3039   1.930       .  S
C3034      C3035   1.409       .  A
C3035      C3036   1.400       .  A
C3035     Br3044   1.932       .  S
C3036     Br3040   1.932       .  S
C3045      C3046   1.411       .  A
C3045      C3050   1.410   1_655  A
C3046      C3047   1.405       .  A
C3046     Br3058   1.932       .  S
C3047      C3048   1.410   1_655  A
C3047     Br3062   1.932       .  S
C3048      C3051   1.483       .  S
C3048      C3049   1.409       .  A
C3049      C3050   1.407       .  A
C3049     Br3057   1.929       .  S
C3050     Br3061   1.929       .  S
C3051      C3052   1.405   1_545  A
C3051      C3056   1.406       .  A
C3052      C3053   1.408       .  A
C3052     Br3063   1.933       .  S
C3053      C3054   1.424       .  A
C3053     Br3059   1.935       .  S
C3054      C3055   1.420   1_565  A
C3055      C3056   1.407       .  A
C3055     Br3064   1.934       .  S
C3056     Br3060   1.933       .  S
C3065      C3066   1.410       .  A
C3065      C3070   1.409       .  A
C3066      C3067   1.405       .  A
C3066     Br3078   1.930       .  S
C3067      C3068   1.408       .  A
C3067     Br3082   1.931       .  S
C3068      C3071   1.482       .  S
C3068      C3069   1.410       .  A
C3069      C3070   1.409       .  A
C3069     Br3077   1.928       .  S
C3070     Br3081   1.930       .  S
C3071      C3072   1.408       .  A
C3071      C3076   1.408       .  A
C3072      C3073   1.407       .  A
C3072     Br3083   1.931       .  S
C3073      C3074   1.412       .  A
C3073     Br3079   1.931       .  S
C3074      C3075   1.412       .  A
C3075      C3076   1.407       .  A
C3075     Br3084   1.931       .  S
C3076     Br3080   1.929       .  S
C3085      C3086   1.416       .  A
C3085      C3090   1.414       .  A
C3086      C3087   1.405       .  A
C3086     Br3098   1.933       .  S
C3087      C3088   1.405       .  A
C3087     Br3102   1.930       .  S
C3088      C3091   1.474       .  S
C3088      C3089   1.407       .  A
C3089      C3090   1.403       .  A
C3089     Br3097   1.933       .  S
C3090     Br3101   1.934       .  S
C3091      C3092   1.406       .  A
C3091      C3096   1.407       .  A
C3092      C3093   1.404       .  A
C3092     Br3103   1.930       .  S
C3093      C3094   1.411       .  A
C3093     Br3099   1.931       .  S
C3094      C3095   1.410       .  A
C3095      C3096   1.403       .  A
C3095     Br3104   1.930       .  S
C3096     Br3100   1.931       .  S
C3105      C3106   1.412       .  A
C3105      C3110   1.412       .  A
C3106      C3107   1.408       .  A
C3106     Br3118   1.932       .  S
C3107      C3108   1.409       .  A
C3107     Br3122   1.929       .  S
C3108      C3111   1.485       .  S
C3108      C3109   1.409       .  A
C3109      C3110   1.408       .  A
C3109     Br3117   1.930       .  S
C3110     Br3121   1.931       .  S
C3111      C3112   1.408       .  A
C3111      C3116   1.410       .  A
C3112      C3113   1.405       .  A
C3112     Br3123   1.931       .  S
C3113      C3114   1.410       .  A
C3113     Br3119   1.930       .  S
C3114      C3115   1.410       .  A
C3115      C3116   1.410       .  A
C3115     Br3124   1.930       .  S
C3116     Br3120   1.928       .  S
C3125      C3126   1.418       .  A
C3125      C3130   1.417       .  A
C3126      C3127   1.409       .  A
C3126     Br3138   1.934       .  S
C3127      C3128   1.406       .  A
C3127     Br3142   1.929       .  S
C3128      C3131   1.483       .  S
C3128      C3129   1.406       .  A
C3129      C3130   1.406       .  A
C3129     Br3137   1.934       .  S
C3130     Br3141   1.924       .  S
C3131      C3132   1.409       .  A
C3131      C3136   1.407       .  A
C3132      C3133   1.408       .  A
C3132     Br3143   1.931   1_556  S
C3133      C3134   1.413       .  A
C3133     Br3139   1.930   1_556  S
C3134      C3135   1.415       .  A
C3135      C3136   1.407       .  A
C3135     Br3144   1.932   1_565  S
C3136     Br3140   1.931       .  S
C3145      C3146   1.420       .  A
C3145      C3150   1.421       .  A
C3146      C3147   1.404       .  A
C3146     Br3158   1.936       .  S
C3147      C3148   1.404       .  A
C3147     Br3162   1.933       .  S
C3148      C3151   1.482       .  S
C3148      C3149   1.407       .  A
C3149      C3150   1.409       .  A
C3149     Br3157   1.934       .  S
C3150     Br3161   1.932       .  S
C3151      C3152   1.409       .  A
C3151      C3156   1.408       .  A
C3152      C3153   1.406       .  A
C3152     Br3163   1.931       .  S
C3153      C3154   1.413       .  A
C3153     Br3159   1.932       .  S
C3154      C3155   1.414       .  A
C3155      C3156   1.405       .  A
C3155     Br3164   1.933   1_565  S
C3156     Br3160   1.932       .  S
C3165      C3166   1.414       .  A
C3165      C3170   1.413       .  A
C3166      C3167   1.406       .  A
C3166     Br3178   1.931       .  S
C3167      C3168   1.406       .  A
C3167     Br3182   1.930       .  S
C3168      C3171   1.481       .  S
C3168      C3169   1.406       .  A
C3169      C3170   1.408       .  A
C3169     Br3177   1.933   1_455  S
C3170     Br3181   1.913   1_455  S
C3171      C3172   1.410       .  A
C3171      C3176   1.407       .  A
C3172      C3173   1.407       .  A
C3172     Br3183   1.928   1_455  S
C3173      C3174   1.408   1_545  A
C3173     Br3179   1.929   1_455  S
C3174      C3175   1.412       .  A
C3175      C3176   1.404   1_565  A
C3175     Br3184   1.932       .  S
C3176     Br3180   1.931   1_545  S
C3185      C3186   1.426       .  A
C3185      C3190   1.423       .  A
C3186      C3187   1.405       .  A
C3186     Br3198   1.931       .  S
C3187      C3188   1.402       .  A
C3187     Br3202   1.938       .  S
C3188      C3191   1.483       .  S
C3188      C3189   1.406       .  A
C3189      C3190   1.413       .  A
C3189     Br3197   1.931       .  S
C3190     Br3201   1.932       .  S
C3191      C3192   1.410       .  A
C3191      C3196   1.408       .  A
C3192      C3193   1.410       .  A
C3192     Br3203   1.928       .  S
C3193      C3194   1.411       .  A
C3193     Br3199   1.931       .  S
C3194      C3195   1.410       .  A
C3195      C3196   1.402       .  A
C3195     Br3204   1.933   1_455  S
C3196     Br3200   1.932       .  S
C3205      C3206   1.421       .  A
C3205      C3210   1.420       .  A
C3206      C3207   1.404       .  A
C3206     Br3218   1.933       .  S
C3207      C3208   1.402       .  A
C3207     Br3222   1.933       .  S
C3208      C3211   1.472       .  S
C3208      C3209   1.405       .  A
C3209      C3210   1.403       .  A
C3209     Br3217   1.936       .  S
C3210     Br3221   1.931       .  S
C3211      C3212   1.406       .  A
C3211      C3216   1.408       .  A
C3212      C3213   1.401       .  A
C3212     Br3223   1.933       .  S
C3213      C3214   1.414       .  A
C3213     Br3219   1.933       .  S
C3214      C3215   1.411       .  A
C3215      C3216   1.403       .  A
C3215     Br3224   1.933       .  S
C3216     Br3220   1.932       .  S
C3225      C3226   1.415   1_565  A
C3225      C3230   1.415       .  A
C3226      C3227   1.407       .  A
C3226     Br3238   1.926       .  S
C3227      C3228   1.406   1_545  A
C3227     Br3242   1.931       .  S
C3228      C3231   1.484       .  S
C3228      C3229   1.408       .  A
C3229      C3230   1.408       .  A
C3229     Br3237   1.931       .  S
C3230     Br3241   1.932       .  S
C3231      C3232   1.407       .  A
C3231      C3236   1.408       .  A
C3232      C3233   1.405       .  A
C3232     Br3243   1.933   1_565  S
C3233      C3234   1.418       .  A
C3233     Br3239   1.935       .  S
C3234      C3235   1.414       .  A
C3235      C3236   1.409       .  A
C3235     Br3244   1.930       .  S
C3236     Br3240   1.928       .  S
C3245      C3246   1.411       .  A
C3245      C3250   1.408       .  A
C3246      C3247   1.400       .  A
C3246     Br3258   1.933       .  S
C3247      C3248   1.405       .  A
C3247     Br3262   1.932       .  S
C3248      C3251   1.470       .  S
C3248      C3249   1.408       .  A
C3249      C3250   1.404       .  A
C3249     Br3257   1.929       .  S
C3250     Br3261   1.930       .  S
C3251      C3252   1.405       .  A
C3251      C3256   1.408       .  A
C3252      C3253   1.399       .  A
C3252     Br3263   1.933       .  S
C3253      C3254   1.411       .  A
C3253     Br3259   1.933       .  S
C3254      C3255   1.409       .  A
C3255      C3256   1.406       .  A
C3255     Br3264   1.930       .  S
C3256     Br3260   1.929       .  S
C3265      C3266   1.406       .  A
C3265      C3270   1.410       .  A
C3266      C3267   1.404       .  A
C3266     Br3278   1.930       .  S
C3267      C3268   1.409       .  A
C3267     Br3282   1.928       .  S
C3268      C3271   1.479       .  S
C3268      C3269   1.409       .  A
C3269      C3270   1.406       .  A
C3269     Br3277   1.930       .  S
C3270     Br3281   1.931       .  S
C3271      C3272   1.406       .  A
C3271      C3276   1.408       .  A
C3272      C3273   1.407       .  A
C3272     Br3283   1.930       .  S
C3273      C3274   1.416       .  A
C3273     Br3279   1.932       .  S
C3274      C3275   1.413       .  A
C3275      C3276   1.405       .  A
C3275     Br3284   1.932       .  S
C3276     Br3280   1.932       .  S
C3285      C3286   1.428       .  A
C3285      C3290   1.427       .  A
C3286      C3287   1.407       .  A
C3286     Br3298   1.936       .  S
C3287      C3288   1.401       .  A
C3287     Br3302   1.934       .  S
C3288      C3291   1.473       .  S
C3288      C3289   1.402       .  A
C3289      C3290   1.401       .  A
C3289     Br3297   1.940       .  S
C3290     Br3301   1.940       .  S
C3291      C3292   1.403       .  A
C3291      C3296   1.401       .  A
C3292      C3293   1.405       .  A
C3292     Br3303   1.934       .  S
C3293      C3294   1.423       .  A
C3293     Br3299   1.933       .  S
C3294      C3295   1.428       .  A
C3295      C3296   1.403       .  A
C3295     Br3304   1.941       .  S
C3296     Br3300   1.937       .  S
C3305      C3306   1.419       .  A
C3305      C3310   1.416       .  A
C3306      C3307   1.406       .  A
C3306     Br3318   1.934       .  S
C3307      C3308   1.406       .  A
C3307     Br3322   1.932       .  S
C3308      C3311   1.486       .  S
C3308      C3309   1.409       .  A
C3309      C3310   1.410       .  A
C3309     Br3317   1.931       .  S
C3310     Br3321   1.931       .  S
C3311      C3312   1.411       .  A
C3311      C3316   1.410       .  A
C3312      C3313   1.409       .  A
C3312     Br3323   1.929       .  S
C3313      C3314   1.408       .  A
C3313     Br3319   1.928       .  S
C3314      C3315   1.409       .  A
C3315      C3316   1.406       .  A
C3315     Br3324   1.928       .  S
C3316     Br3320   1.931       .  S
C3325      C3326   1.407   1_545  A
C3325      C3330   1.409       .  A
C3326      C3327   1.403       .  A
C3326     Br3338   1.928       .  S
C3327      C3328   1.408   1_565  A
C3327     Br3342   1.930       .  S
C3328      C3331   1.475   1_554  S
C3328      C3329   1.406       .  A
C3329      C3330   1.405       .  A
C3329     Br3337   1.930   1_554  S
C3330     Br3341   1.921       .  S
C3331      C3332   1.407       .  A
C3331      C3336   1.406   1_556  A
C3332      C3333   1.406       .  A
C3332     Br3343   1.930   1_545  S
C3333      C3334   1.413       .  A
C3333     Br3339   1.931   1_545  S
C3334      C3335   1.412       .  A
C3335      C3336   1.403   1_556  A
C3335     Br3344   1.932   1_556  S
C3336     Br3340   1.930       .  S
C3345      C3346   1.415       .  A
C3345      C3350   1.413       .  A
C3346      C3347   1.404       .  A
C3346     Br3358   1.934       .  S
C3347      C3348   1.406       .  A
C3347     Br3362   1.932       .  S
C3348      C3351   1.474       .  S
C3348      C3349   1.406       .  A
C3349      C3350   1.402       .  A
C3349     Br3357   1.932       .  S
C3350     Br3361   1.932       .  S
C3351      C3352   1.401       .  A
C3351      C3356   1.401       .  A
C3352      C3353   1.406       .  A
C3352     Br3363   1.937       .  S
C3353      C3354   1.429       .  A
C3353     Br3359   1.938       .  S
C3354      C3355   1.427       .  A
C3355      C3356   1.404       .  A
C3355     Br3364   1.938       .  S
C3356     Br3360   1.935       .  S
C3365      C3366   1.415       .  A
C3365      C3370   1.411       .  A
C3366      C3367   1.401       .  A
C3366     Br3378   1.932       .  S
C3367      C3368   1.405       .  A
C3367     Br3382   1.935       .  S
C3368      C3371   1.479       .  S
C3368      C3369   1.410       .  A
C3369      C3370   1.410       .  A
C3369     Br3377   1.928       .  S
C3370     Br3381   1.928       .  S
C3371      C3372   1.409       .  A
C3371      C3376   1.408       .  A
C3372      C3373   1.406       .  A
C3372     Br3383   1.930       .  S
C3373      C3374   1.412       .  A
C3373     Br3379   1.932       .  S
C3374      C3375   1.410       .  A
C3375      C3376   1.404       .  A
C3375     Br3384   1.932   1_556  S
C3376     Br3380   1.930   1_556  S
C3385      C3386   1.414       .  A
C3385      C3390   1.415       .  A
C3386      C3387   1.405       .  A
C3386     Br3398   1.933       .  S
C3387      C3388   1.408       .  A
C3387     Br3402   1.932       .  S
C3388      C3391   1.482       .  S
C3388      C3389   1.407       .  A
C3389      C3390   1.406       .  A
C3389     Br3397   1.931       .  S
C3390     Br3401   1.933       .  S
C3391      C3392   1.402       .  A
C3391      C3396   1.401       .  A
C3392      C3393   1.410       .  A
C3392     Br3403   1.936       .  S
C3393      C3394   1.433       .  A
C3393     Br3399   1.938       .  S
C3394      C3395   1.430       .  A
C3395      C3396   1.407       .  A
C3395     Br3404   1.939       .  S
C3396     Br3400   1.937       .  S
C3405      C3406   1.415       .  A
C3405      C3410   1.416       .  A
C3406      C3407   1.407       .  A
C3406     Br3418   1.930       .  S
C3407      C3408   1.407       .  A
C3407     Br3422   1.930       .  S
C3408      C3411   1.477       .  S
C3408      C3409   1.405       .  A
C3409      C3410   1.403       .  A
C3409     Br3417   1.933       .  S
C3410     Br3421   1.935       .  S
C3411      C3412   1.407       .  A
C3411      C3416   1.408       .  A
C3412      C3413   1.403       .  A
C3412     Br3423   1.931       .  S
C3413      C3414   1.410       .  A
C3413     Br3419   1.932       .  S
C3414      C3415   1.412       .  A
C3415      C3416   1.405       .  A
C3415     Br3424   1.932       .  S
C3416     Br3420   1.929       .  S
C3425      C3426   1.409       .  A
C3425      C3430   1.408       .  A
C3426      C3427   1.406       .  A
C3426     Br3438   1.930       .  S
C3427      C3428   1.409       .  A
C3427     Br3442   1.929   1_565  S
C3428      C3431   1.477       .  S
C3428      C3429   1.409       .  A
C3429      C3430   1.402       .  A
C3429     Br3437   1.931       .  S
C3430     Br3441   1.931       .  S
C3431      C3432   1.407       .  A
C3431      C3436   1.407       .  A
C3432      C3433   1.406       .  A
C3432     Br3443   1.930       .  S
C3433      C3434   1.414       .  A
C3433     Br3439   1.932       .  S
C3434      C3435   1.414       .  A
C3435      C3436   1.403       .  A
C3435     Br3444   1.934       .  S
C3436     Br3440   1.933       .  S
C3445      C3446   1.418   1_565  A
C3445      C3450   1.415       .  A
C3446      C3447   1.403       .  A
C3446     Br3458   1.936       .  S
C3447      C3448   1.404   1_545  A
C3447     Br3462   1.933       .  S
C3448      C3451   1.475       .  S
C3448      C3449   1.406       .  A
C3449      C3450   1.404       .  A
C3449     Br3457   1.931       .  S
C3450     Br3461   1.933       .  S
C3451      C3452   1.402       .  A
C3451      C3456   1.401       .  A
C3452      C3453   1.405       .  A
C3452     Br3463   1.938   1_565  S
C3453      C3454   1.426       .  A
C3453     Br3459   1.932   1_565  S
C3454      C3455   1.424       .  A
C3455      C3456   1.407       .  A
C3455     Br3464   1.929       .  S
C3456     Br3460   1.933       .  S
C3465      C3466   1.410       .  A
C3465      C3470   1.408       .  A
C3466      C3467   1.403       .  A
C3466     Br3478   1.932       .  S
C3467      C3468   1.407       .  A
C3467     Br3482   1.930       .  S
C3468      C3471   1.471       .  S
C3468      C3469   1.407       .  A
C3469      C3470   1.401       .  A
C3469     Br3477   1.931       .  S
C3470     Br3481   1.931       .  S
C3471      C3472   1.406       .  A
C3471      C3476   1.408       .  A
C3472      C3473   1.404       .  A
C3472     Br3483   1.930       .  S
C3473      C3474   1.411       .  A
C3473     Br3479   1.931       .  S
C3474      C3475   1.410       .  A
C3475      C3476   1.401       .  A
C3475     Br3484   1.932       .  S
C3476     Br3480   1.933       .  S
C3485      C3486   1.413       .  A
C3485      C3490   1.414       .  A
C3486      C3487   1.406       .  A
C3486     Br3498   1.932   1_545  S
C3487      C3488   1.409       .  A
C3487     Br3502   1.931   1_545  S
C3488      C3491   1.482       .  S
C3488      C3489   1.409       .  A
C3489      C3490   1.405       .  A
C3489     Br3497   1.934       .  S
C3490     Br3501   1.934       .  S
C3491      C3492   1.407       .  A
C3491      C3496   1.408       .  A
C3492      C3493   1.406   1_554  A
C3492     Br3503   1.931   1_554  S
C3493      C3494   1.416       .  A
C3493     Br3499   1.933   1_545  S
C3494      C3495   1.418   1_556  A
C3495      C3496   1.405       .  A
C3495     Br3504   1.935       .  S
C3496     Br3500   1.934       .  S
C3505      C3506   1.410       .  A
C3505      C3510   1.410       .  A
C3506      C3507   1.401       .  A
C3506     Br3518   1.931       .  S
C3507      C3508   1.409       .  A
C3507     Br3522   1.932       .  S
C3508      C3511   1.484       .  S
C3508      C3509   1.411       .  A
C3509      C3510   1.409       .  A
C3509     Br3517   1.929       .  S
C3510     Br3521   1.928       .  S
C3511      C3512   1.411       .  A
C3511      C3516   1.411       .  A
C3512      C3513   1.409       .  A
C3512     Br3523   1.930       .  S
C3513      C3514   1.411       .  A
C3513     Br3519   1.930       .  S
C3514      C3515   1.409       .  A
C3515      C3516   1.403       .  A
C3515     Br3524   1.931       .  S
C3516     Br3520   1.934       .  S
C3525      C3526   1.426       .  A
C3525      C3530   1.433       .  A
C3526      C3527   1.409       .  A
C3526     Br3538   1.936       .  S
C3527      C3528   1.404       .  A
C3527     Br3542   1.934       .  S
C3528      C3531   1.482       .  S
C3528      C3529   1.401       .  A
C3529      C3530   1.408       .  A
C3529     Br3537   1.937       .  S
C3530     Br3541   1.939       .  S
C3531      C3532   1.410       .  A
C3531      C3536   1.407       .  A
C3532      C3533   1.406       .  A
C3532     Br3543   1.930       .  S
C3533      C3534   1.410       .  A
C3533     Br3539   1.931       .  S
C3534      C3535   1.412       .  A
C3535      C3536   1.405       .  A
C3535     Br3544   1.931       .  S
C3536     Br3540   1.930       .  S
C3545      C3546   1.411       .  A
C3545      C3550   1.409       .  A
C3546      C3547   1.410       .  A
C3546     Br3558   1.930       .  S
C3547      C3548   1.410       .  A
C3547     Br3562   1.929       .  S
C3548      C3551   1.488       .  S
C3548      C3549   1.409       .  A
C3549      C3550   1.406       .  A
C3549     Br3557   1.929       .  S
C3550     Br3561   1.931       .  S
C3551      C3552   1.406       .  A
C3551      C3556   1.407       .  A
C3552      C3553   1.411       .  A
C3552     Br3563   1.930       .  S
C3553      C3554   1.419       .  A
C3553     Br3559   1.932       .  S
C3554      C3555   1.415       .  A
C3555      C3556   1.409       .  A
C3555     Br3564   1.922       .  S
C3556     Br3560   1.933       .  S
C3565      C3566   1.413       .  A
C3565      C3570   1.411       .  A
C3566      C3567   1.406       .  A
C3566     Br3578   1.933       .  S
C3567      C3568   1.408       .  A
C3567     Br3582   1.929       .  S
C3568      C3571   1.480       .  S
C3568      C3569   1.409       .  A
C3569      C3570   1.403       .  A
C3569     Br3577   1.932       .  S
C3570     Br3581   1.933       .  S
C3571      C3572   1.408       .  A
C3571      C3576   1.405       .  A
C3572      C3573   1.406       .  A
C3572     Br3583   1.932       .  S
C3573      C3574   1.415       .  A
C3573     Br3579   1.932       .  S
C3574      C3575   1.419       .  A
C3575      C3576   1.406       .  A
C3575     Br3584   1.934       .  S
C3576     Br3580   1.932       .  S
C3585      C3586   1.409       .  A
C3585      C3590   1.411       .  A
C3586      C3587   1.405       .  A
C3586     Br3598   1.931       .  S
C3587      C3588   1.408       .  A
C3587     Br3602   1.929       .  S
C3588      C3591   1.474       .  S
C3588      C3589   1.406       .  A
C3589      C3590   1.402       .  A
C3589     Br3597   1.932       .  S
C3590     Br3601   1.932       .  S
C3591      C3592   1.406       .  A
C3591      C3596   1.408       .  A
C3592      C3593   1.402       .  A
C3592     Br3603   1.932       .  S
C3593      C3594   1.411       .  A
C3593     Br3599   1.932       .  S
C3594      C3595   1.409       .  A
C3595      C3596   1.405       .  A
C3595     Br3604   1.930       .  S
C3596     Br3600   1.929       .  S
C3605      C3606   1.414       .  A
C3605      C3610   1.413       .  A
C3606      C3607   1.405       .  A
C3606     Br3618   1.934       .  S
C3607      C3608   1.409       .  A
C3607     Br3622   1.933       .  S
C3608      C3611   1.483       .  S
C3608      C3609   1.409       .  A
C3609      C3610   1.407       .  A
C3609     Br3617   1.930       .  S
C3610     Br3621   1.932       .  S
C3611      C3612   1.407       .  A
C3611      C3616   1.407       .  A
C3612      C3613   1.408       .  A
C3612     Br3623   1.930       .  S
C3613      C3614   1.416       .  A
C3613     Br3619   1.930       .  S
C3614      C3615   1.419       .  A
C3615      C3616   1.405       .  A
C3615     Br3624   1.935       .  S
C3616     Br3620   1.935       .  S
C3625      C3626   1.411       .  A
C3625      C3630   1.411       .  A
C3626      C3627   1.402       .  A
C3626     Br3638   1.933       .  S
C3627      C3628   1.407       .  A
C3627     Br3642   1.931       .  S
C3628      C3631   1.472       .  S
C3628      C3629   1.407       .  A
C3629      C3630   1.403       .  A
C3629     Br3637   1.930       .  S
C3630     Br3641   1.933       .  S
C3631      C3632   1.406       .  A
C3631      C3636   1.408       .  A
C3632      C3633   1.400       .  A
C3632     Br3643   1.934       .  S
C3633      C3634   1.412       .  A
C3633     Br3639   1.932       .  S
C3634      C3635   1.409       .  A
C3635      C3636   1.405       .  A
C3635     Br3644   1.929       .  S
C3636     Br3640   1.929       .  S
C3645      C3646   1.416       .  A
C3645      C3650   1.419       .  A
C3646      C3647   1.409       .  A
C3646     Br3658   1.932       .  S
C3647      C3648   1.407       .  A
C3647     Br3662   1.929       .  S
C3648      C3651   1.487       .  S
C3648      C3649   1.407       .  A
C3649      C3650   1.408       .  A
C3649     Br3657   1.933       .  S
C3650     Br3661   1.933       .  S
C3651      C3652   1.404       .  A
C3651      C3656   1.408       .  A
C3652      C3653   1.408       .  A
C3652     Br3663   1.932       .  S
C3653      C3654   1.420       .  A
C3653     Br3659   1.925   1_545  S
C3654      C3655   1.420       .  A
C3655      C3656   1.411       .  A
C3655     Br3664   1.933       .  S
C3656     Br3660   1.932       .  S
C3665      C3666   1.409       .  A
C3665      C3670   1.408       .  A
C3666      C3667   1.403       .  A
C3666     Br3678   1.930       .  S
C3667      C3668   1.407       .  A
C3667     Br3682   1.930       .  S
C3668      C3671   1.474       .  S
C3668      C3669   1.408       .  A
C3669      C3670   1.403       .  A
C3669     Br3677   1.930       .  S
C3670     Br3681   1.930       .  S
C3671      C3672   1.404       .  A
C3671      C3676   1.407       .  A
C3672      C3673   1.404       .  A
C3672     Br3683   1.931       .  S
C3673      C3674   1.416       .  A
C3673     Br3679   1.933       .  S
C3674      C3675   1.415       .  A
C3675      C3676   1.404       .  A
C3675     Br3684   1.935       .  S
C3676     Br3680   1.932       .  S
C3685      C3686   1.415       .  A
C3685      C3690   1.419       .  A
C3686      C3687   1.406       .  A
C3686     Br3698   1.933       .  S
C3687      C3688   1.407       .  A
C3687     Br3702   1.930       .  S
C3688      C3691   1.478       .  S
C3688      C3689   1.406       .  A
C3689      C3690   1.403       .  A
C3689     Br3697   1.934       .  S
C3690     Br3701   1.936       .  S
C3691      C3692   1.408       .  A
C3691      C3696   1.408       .  A
C3692      C3693   1.406       .  A
C3692     Br3703   1.930       .  S
C3693      C3694   1.411       .  A
C3693     Br3699   1.931       .  S
C3694      C3695   1.411       .  A
C3695      C3696   1.403       .  A
C3695     Br3704   1.932       .  S
C3696     Br3700   1.932       .  S
C3705      C3706   1.418   1_545  A
C3705      C3710   1.416       .  A
C3706      C3707   1.409       .  A
C3706     Br3718   1.933       .  S
C3707      C3708   1.408   1_565  A
C3707     Br3722   1.932       .  S
C3708      C3711   1.488       .  S
C3708      C3709   1.407       .  A
C3709      C3710   1.409       .  A
C3709     Br3717   1.930       .  S
C3710     Br3721   1.932       .  S
C3711      C3712   1.406   1_545  A
C3711      C3716   1.406       .  A
C3712      C3713   1.409       .  A
C3712     Br3723   1.932       .  S
C3713      C3714   1.421   1_565  A
C3713     Br3719   1.935       .  S
C3714      C3715   1.421       .  A
C3715      C3716   1.411       .  A
C3715     Br3724   1.932       .  S
C3716     Br3720   1.931       .  S
C3725      C3726   1.420       .  A
C3725      C3730   1.419       .  A
C3726      C3727   1.407       .  A
C3726     Br3738   1.933       .  S
C3727      C3728   1.403       .  A
C3727     Br3742   1.931       .  S
C3728      C3731   1.477       .  S
C3728      C3729   1.406       .  A
C3729      C3730   1.404       .  A
C3729     Br3737   1.934       .  S
C3730     Br3741   1.935       .  S
C3731      C3732   1.407       .  A
C3731      C3736   1.408       .  A
C3732      C3733   1.403       .  A
C3732     Br3743   1.930       .  S
C3733      C3734   1.408       .  A
C3733     Br3739   1.926       .  S
C3734      C3735   1.412       .  A
C3735      C3736   1.406       .  A
C3735     Br3744   1.931       .  S
C3736     Br3740   1.929       .  S
C3745      C3746   1.410       .  A
C3745      C3750   1.413       .  A
C3746      C3747   1.411       .  A
C3746     Br3758   1.927       .  S
C3747      C3748   1.412       .  A
C3747     Br3762   1.928       .  S
C3748      C3751   1.491       .  S
C3748      C3749   1.410       .  A
C3749      C3750   1.407       .  A
C3749     Br3757   1.932       .  S
C3750     Br3761   1.931       .  S
C3751      C3752   1.411       .  A
C3751      C3756   1.410       .  A
C3752      C3753   1.407       .  A
C3752     Br3763   1.932       .  S
C3753      C3754   1.410       .  A
C3753     Br3759   1.930       .  S
C3754      C3755   1.414       .  A
C3755      C3756   1.411       .  A
C3755     Br3764   1.930       .  S
C3756     Br3760   1.930       .  S
C3765      C3766   1.411       .  A
C3765      C3770   1.410       .  A
C3766      C3767   1.404       .  A
C3766     Br3778   1.931       .  S
C3767      C3768   1.407       .  A
C3767     Br3782   1.931       .  S
C3768      C3771   1.475       .  S
C3768      C3769   1.408       .  A
C3769      C3770   1.403       .  A
C3769     Br3777   1.930       .  S
C3770     Br3781   1.931       .  S
C3771      C3772   1.404       .  A
C3771      C3776   1.403       .  A
C3772      C3773   1.409       .  A
C3772     Br3783   1.930       .  S
C3773      C3774   1.419       .  A
C3773     Br3779   1.930       .  S
C3774      C3775   1.427       .  A
C3775      C3776   1.402       .  A
C3775     Br3784   1.942       .  S
C3776     Br3780   1.939       .  S
C3785      C3786   1.409       .  A
C3785      C3790   1.410       .  A
C3786      C3787   1.405       .  A
C3786     Br3798   1.929       .  S
C3787      C3788   1.410       .  A
C3787     Br3802   1.931       .  S
C3788      C3791   1.484       .  S
C3788      C3789   1.410       .  A
C3789      C3790   1.408       .  A
C3789     Br3797   1.931       .  S
C3790     Br3801   1.927       .  S
C3791      C3792   1.408       .  A
C3791      C3796   1.408       .  A
C3792      C3793   1.405       .  A
C3792     Br3803   1.931       .  S
C3793      C3794   1.415       .  A
C3793     Br3799   1.934       .  S
C3794      C3795   1.419       .  A
C3795      C3796   1.409       .  A
C3795     Br3804   1.933       .  S
C3796     Br3800   1.933       .  S
C3805      C3806   1.411       .  A
C3805      C3810   1.411   1_565  A
C3806      C3807   1.400       .  A
C3806     Br3818   1.933       .  S
C3807      C3808   1.407   1_565  A
C3807     Br3822   1.933       .  S
C3808      C3811   1.471       .  S
C3808      C3809   1.407       .  A
C3809      C3810   1.403       .  A
C3809     Br3817   1.930       .  S
C3810     Br3821   1.933       .  S
C3811      C3812   1.407       .  A
C3811      C3816   1.407       .  A
C3812      C3813   1.402       .  A
C3812     Br3823   1.933       .  S
C3813      C3814   1.411       .  A
C3813     Br3819   1.932       .  S
C3814      C3815   1.409       .  A
C3815      C3816   1.402       .  A
C3815     Br3824   1.928       .  S
C3816     Br3820   1.931       .  S
C3825      C3826   1.410       .  A
C3825      C3830   1.411   1_565  A
C3826      C3827   1.408       .  A
C3826     Br3838   1.923       .  S
C3827      C3828   1.408       .  A
C3827     Br3842   1.929       .  S
C3828      C3831   1.486       .  S
C3828      C3829   1.408       .  A
C3829      C3830   1.409   1_565  A
C3829     Br3837   1.930   1_565  S
C3830     Br3841   1.926       .  S
C3831      C3832   1.408       .  A
C3831      C3836   1.411       .  A
C3832      C3833   1.406       .  A
C3832     Br3843   1.931       .  S
C3833      C3834   1.413       .  A
C3833     Br3839   1.933       .  S
C3834      C3835   1.410       .  A
C3835      C3836   1.410       .  A
C3835     Br3844   1.930       .  S
C3836     Br3840   1.928       .  S
C3845      C3846   1.409       .  A
C3845      C3850   1.410       .  A
C3846      C3847   1.400       .  A
C3846     Br3858   1.931       .  S
C3847      C3848   1.407       .  A
C3847     Br3862   1.931       .  S
C3848      C3851   1.470       .  S
C3848      C3849   1.406       .  A
C3849      C3850   1.404       .  A
C3849     Br3857   1.929       .  S
C3850     Br3861   1.931       .  S
C3851      C3852   1.408       .  A
C3851      C3856   1.407       .  A
C3852      C3853   1.400       .  A
C3852     Br3863   1.932       .  S
C3853      C3854   1.407       .  A
C3853     Br3859   1.932       .  S
C3854      C3855   1.408       .  A
C3855      C3856   1.403       .  A
C3855     Br3864   1.930       .  S
C3856     Br3860   1.928       .  S
C3865      C3866   1.417       .  A
C3865      C3870   1.415       .  A
C3866      C3867   1.402       .  A
C3866     Br3878   1.935       .  S
C3867      C3868   1.405       .  A
C3867     Br3882   1.933       .  S
C3868      C3871   1.470       .  S
C3868      C3869   1.404       .  A
C3869      C3870   1.400       .  A
C3869     Br3877   1.932       .  S
C3870     Br3881   1.934       .  S
C3871      C3872   1.401       .  A
C3871      C3876   1.400       .  A
C3872      C3873   1.403       .  A
C3872     Br3883   1.939       .  S
C3873      C3874   1.429       .  A
C3873     Br3879   1.939       .  S
C3874      C3875   1.428       .  A
C3875      C3876   1.405       .  A
C3875     Br3884   1.938       .  S
C3876     Br3880   1.936       .  S
C3885      C3886   1.418       .  A
C3885      C3890   1.421       .  A
C3886      C3887   1.407       .  A
C3886     Br3898   1.931       .  S
C3887      C3888   1.406       .  A
C3887     Br3902   1.933       .  S
C3888      C3891   1.481       .  S
C3888      C3889   1.404       .  A
C3889      C3890   1.408       .  A
C3889     Br3897   1.932       .  S
C3890     Br3901   1.934       .  S
C3891      C3892   1.409       .  A
C3891      C3896   1.407       .  A
C3892      C3893   1.405       .  A
C3892     Br3903   1.929       .  S
C3893      C3894   1.408       .  A
C3893     Br3899   1.931       .  S
C3894      C3895   1.412       .  A
C3895      C3896   1.406       .  A
C3895     Br3904   1.931   1_565  S
C3896     Br3900   1.929       .  S
C3905      C3906   1.411       .  A
C3905      C3910   1.408       .  A
C3906      C3907   1.404       .  A
C3906     Br3918   1.931       .  S
C3907      C3908   1.407       .  A
C3907     Br3922   1.931       .  S
C3908      C3911   1.475       .  S
C3908      C3909   1.408       .  A
C3909      C3910   1.404       .  A
C3909     Br3917   1.929       .  S
C3910     Br3921   1.930       .  S
C3911      C3912   1.405       .  A
C3911      C3916   1.407       .  A
C3912      C3913   1.403       .  A
C3912     Br3923   1.931       .  S
C3913      C3914   1.410       .  A
C3913     Br3919   1.923       .  S
C3914      C3915   1.413       .  A
C3915      C3916   1.405       .  A
C3915     Br3924   1.932       .  S
C3916     Br3920   1.931       .  S
C3925      C3926   1.407       .  A
C3925      C3930   1.411       .  A
C3926      C3927   1.406       .  A
C3926     Br3938   1.930       .  S
C3927      C3928   1.408       .  A
C3927     Br3942   1.927       .  S
C3928      C3931   1.476       .  S
C3928      C3929   1.407       .  A
C3929      C3930   1.403       .  A
C3929     Br3937   1.932       .  S
C3930     Br3941   1.931       .  S
C3931      C3932   1.407       .  A
C3931      C3936   1.407       .  A
C3932      C3933   1.407       .  A
C3932     Br3943   1.929       .  S
C3933      C3934   1.412       .  A
C3933     Br3939   1.931       .  S
C3934      C3935   1.413       .  A
C3935      C3936   1.403       .  A
C3935     Br3944   1.934       .  S
C3936     Br3940   1.933       .  S
C3945      C3946   1.418       .  A
C3945      C3950   1.414       .  A
C3946      C3947   1.409       .  A
C3946     Br3958   1.933       .  S
C3947      C3948   1.408       .  A
C3947     Br3962   1.932       .  S
C3948      C3951   1.483       .  S
C3948      C3949   1.407       .  A
C3949      C3950   1.405       .  A
C3949     Br3957   1.932       .  S
C3950     Br3961   1.933       .  S
C3951      C3952   1.409       .  A
C3951      C3956   1.409       .  A
C3952      C3953   1.406       .  A
C3952     Br3963   1.931       .  S
C3953      C3954   1.411       .  A
C3953     Br3959   1.931       .  S
C3954      C3955   1.411       .  A
C3955      C3956   1.407       .  A
C3955     Br3964   1.931       .  S
C3956     Br3960   1.930       .  S
C3965      C3966   1.415       .  A
C3965      C3970   1.410       .  A
C3966      C3967   1.405       .  A
C3966     Br3978   1.931       .  S
C3967      C3968   1.406       .  A
C3967     Br3982   1.932       .  S
C3968      C3971   1.483       .  S
C3968      C3969   1.409       .  A
C3969      C3970   1.411       .  A
C3969     Br3977   1.929       .  S
C3970     Br3981   1.923       .  S
C3971      C3972   1.411       .  A
C3971      C3976   1.407       .  A
C3972      C3973   1.409       .  A
C3972     Br3983   1.927       .  S
C3973      C3974   1.409       .  A
C3973     Br3979   1.930       .  S
C3974      C3975   1.411       .  A
C3975      C3976   1.404       .  A
C3975     Br3984   1.931       .  S
C3976     Br3980   1.931       .  S
C3985      C3986   1.421       .  A
C3985      C3990   1.426       .  A
C3986      C3987   1.408       .  A
C3986     Br3998   1.931       .  S
C3987      C3988   1.405       .  A
C3987     Br4002   1.932       .  S
C3988      C3991   1.481       .  S
C3988      C3989   1.402       .  A
C3989      C3990   1.408       .  A
C3989     Br3997   1.934       .  S
C3990     Br4001   1.935       .  S
C3991      C3992   1.409       .  A
C3991      C3996   1.408       .  A
C3992      C3993   1.409       .  A
C3992     Br4003   1.927       .  S
C3993      C3994   1.408       .  A
C3993     Br3999   1.925       .  S
C3994      C3995   1.409       .  A
C3995      C3996   1.403       .  A
C3995     Br4004   1.929       .  S
C3996     Br4000   1.932       .  S
C4005      C4006   1.415       .  A
C4005      C4010   1.417       .  A
C4006      C4007   1.408       .  A
C4006     Br4018   1.927       .  S
C4007      C4008   1.407       .  A
C4007     Br4022   1.931       .  S
C4008      C4011   1.488       .  S
C4008      C4009   1.409       .  A
C4009      C4010   1.411       .  A
C4009     Br4017   1.931       .  S
C4010     Br4021   1.931       .  S
C4011      C4012   1.411       .  A
C4011      C4016   1.407       .  A
C4012      C4013   1.409       .  A
C4012     Br4023   1.930       .  S
C4013      C4014   1.412       .  A
C4013     Br4019   1.931       .  S
C4014      C4015   1.416       .  A
C4015      C4016   1.408       .  A
C4015     Br4024   1.933       .  S
C4016     Br4020   1.930       .  S
C4025      C4026   1.408       .  A
C4025      C4030   1.408       .  A
C4026      C4027   1.404       .  A
C4026     Br4038   1.931       .  S
C4027      C4028   1.409       .  A
C4027     Br4042   1.931       .  S
C4028      C4031   1.477       .  S
C4028      C4029   1.407       .  A
C4029      C4030   1.405       .  A
C4029     Br4037   1.928       .  S
C4030     Br4041   1.930       .  S
C4031      C4032   1.409       .  A
C4031      C4036   1.406       .  A
C4032      C4033   1.406       .  A
C4032     Br4043   1.931       .  S
C4033      C4034   1.410       .  A
C4033     Br4039   1.930       .  S
C4034      C4035   1.413       .  A
C4035      C4036   1.404       .  A
C4035     Br4044   1.931       .  S
C4036     Br4040   1.930       .  S
C4045      C4046   1.416       .  A
C4045      C4050   1.413       .  A
C4046      C4047   1.405       .  A
C4046     Br4058   1.933       .  S
C4047      C4048   1.406       .  A
C4047     Br4062   1.932       .  S
C4048      C4051   1.477       .  S
C4048      C4049   1.407       .  A
C4049      C4050   1.405       .  A
C4049     Br4057   1.930       .  S
C4050     Br4061   1.932       .  S
C4051      C4052   1.409       .  A
C4051      C4056   1.407       .  A
C4052      C4053   1.406       .  A
C4052     Br4063   1.930       .  S
C4053      C4054   1.408       .  A
C4053     Br4059   1.930       .  S
C4054      C4055   1.408       .  A
C4055      C4056   1.403       .  A
C4055     Br4064   1.929       .  S
C4056     Br4060   1.930       .  S
C4065      C4066   1.411       .  A
C4065      C4070   1.408       .  A
C4066      C4067   1.400       .  A
C4066     Br4078   1.933       .  S
C4067      C4068   1.406       .  A
C4067     Br4082   1.932       .  S
C4068      C4071   1.472       .  S
C4068      C4069   1.408       .  A
C4069      C4070   1.404       .  A
C4069     Br4077   1.928       .  S
C4070     Br4081   1.931       .  S
C4071      C4072   1.407       .  A
C4071      C4076   1.405       .  A
C4072      C4073   1.406       .  A
C4072     Br4083   1.929       .  S
C4073      C4074   1.409       .  A
C4073     Br4079   1.922       .  S
C4074      C4075   1.412       .  A
C4075      C4076   1.400       .  A
C4075     Br4084   1.930       .  S
C4076     Br4080   1.933       .  S
C4085      C4086   1.412       .  A
C4085      C4090   1.407       .  A
C4086      C4087   1.405       .  A
C4086     Br4098   1.931       .  S
C4087      C4088   1.406       .  A
C4087     Br4102   1.930       .  S
C4088      C4091   1.473       .  S
C4088      C4089   1.408       .  A
C4089      C4090   1.401       .  A
C4089     Br4097   1.931       .  S
C4090     Br4101   1.931       .  S
C4091      C4092   1.403       .  A
C4091      C4096   1.407       .  A
C4092      C4093   1.403       .  A
C4092     Br4103   1.931       .  S
C4093      C4094   1.416       .  A
C4093     Br4099   1.934       .  S
C4094      C4095   1.414       .  A
C4095      C4096   1.405       .  A
C4095     Br4104   1.933       .  S
C4096     Br4100   1.932       .  S
C4105      C4106   1.410       .  A
C4105      C4110   1.408       .  A
C4106      C4107   1.408       .  A
C4106     Br4118   1.929       .  S
C4107      C4108   1.408       .  A
C4107     Br4122   1.928       .  S
C4108      C4111   1.476       .  S
C4108      C4109   1.407       .  A
C4109      C4110   1.401       .  A
C4109     Br4117   1.932       .  S
C4110     Br4121   1.929       .  S
C4111      C4112   1.408       .  A
C4111      C4116   1.404       .  A
C4112      C4113   1.407       .  A
C4112     Br4123   1.929       .  S
C4113      C4114   1.411       .  A
C4113     Br4119   1.931       .  S
C4114      C4115   1.416       .  A
C4115      C4116   1.403       .  A
C4115     Br4124   1.934       .  S
C4116     Br4120   1.931       .  S
C4125      C4126   1.420       .  A
C4125      C4130   1.423       .  A
C4126      C4127   1.410       .  A
C4126     Br4138   1.932       .  S
C4127      C4128   1.406       .  A
C4127     Br4142   1.931       .  S
C4128      C4131   1.487       .  S
C4128      C4129   1.406       .  A
C4129      C4130   1.409       .  A
C4129     Br4137   1.934       .  S
C4130     Br4141   1.935       .  S
C4131      C4132   1.407       .  A
C4131      C4136   1.408       .  A
C4132      C4133   1.409       .  A
C4132     Br4143   1.930       .  S
C4133      C4134   1.417       .  A
C4133     Br4139   1.933       .  S
C4134      C4135   1.418       .  A
C4135      C4136   1.408       .  A
C4135     Br4144   1.934       .  S
C4136     Br4140   1.932       .  S
C4145      C4146   1.412       .  A
C4145      C4150   1.409       .  A
C4146      C4147   1.406       .  A
C4146     Br4158   1.931       .  S
C4147      C4148   1.408       .  A
C4147     Br4162   1.930       .  S
C4148      C4151   1.482       .  S
C4148      C4149   1.409       .  A
C4149      C4150   1.407       .  A
C4149     Br4157   1.929       .  S
C4150     Br4161   1.930       .  S
C4151      C4152   1.409       .  A
C4151      C4156   1.406       .  A
C4152      C4153   1.408       .  A
C4152     Br4163   1.931       .  S
C4153      C4154   1.414       .  A
C4153     Br4159   1.933       .  S
C4154      C4155   1.416       .  A
C4155      C4156   1.406       .  A
C4155     Br4164   1.933       .  S
C4156     Br4160   1.930       .  S
C4165      C4166   1.413       .  A
C4165      C4170   1.410       .  A
C4166      C4167   1.407       .  A
C4166     Br4178   1.932       .  S
C4167      C4168   1.408       .  A
C4167     Br4182   1.930       .  S
C4168      C4171   1.485       .  S
C4168      C4169   1.409       .  A
C4169      C4170   1.407       .  A
C4169     Br4177   1.929       .  S
C4170     Br4181   1.931       .  S
C4171      C4172   1.407       .  A
C4171      C4176   1.407       .  A
C4172      C4173   1.410       .  A
C4172     Br4183   1.930       .  S
C4173      C4174   1.417       .  A
C4173     Br4179   1.931       .  S
C4174      C4175   1.417       .  A
C4175      C4176   1.407       .  A
C4175     Br4184   1.934       .  S
C4176     Br4180   1.932       .  S
C4185      C4186   1.409       .  A
C4185      C4190   1.412       .  A
C4186      C4187   1.404       .  A
C4186     Br4198   1.931       .  S
C4187      C4188   1.408       .  A
C4187     Br4202   1.929       .  S
C4188      C4191   1.474       .  S
C4188      C4189   1.407       .  A
C4189      C4190   1.401       .  A
C4189     Br4197   1.932       .  S
C4190     Br4201   1.933       .  S
C4191      C4192   1.407       .  A
C4191      C4196   1.409       .  A
C4192      C4193   1.404       .  A
C4192     Br4203   1.929       .  S
C4193      C4194   1.409       .  A
C4193     Br4199   1.930       .  S
C4194      C4195   1.409       .  A
C4195      C4196   1.403       .  A
C4195     Br4204   1.931       .  S
C4196     Br4200   1.932       .  S
C4205      C4206   1.412       .  A
C4205      C4210   1.415       .  A
C4206      C4207   1.406       .  A
C4206     Br4218   1.919       .  S
C4207      C4208   1.406       .  A
C4207     Br4222   1.932       .  S
C4208      C4211   1.480       .  S
C4208      C4209   1.406       .  A
C4209      C4210   1.407       .  A
C4209     Br4217   1.930       .  S
C4210     Br4221   1.932       .  S
C4211      C4212   1.408       .  A
C4211      C4216   1.409       .  A
C4212      C4213   1.404       .  A
C4212     Br4223   1.931       .  S
C4213      C4214   1.409       .  A
C4213     Br4219   1.930       .  S
C4214      C4215   1.408       .  A
C4215      C4216   1.407       .  A
C4215     Br4224   1.930       .  S
C4216     Br4220   1.928       .  S
C4225      C4226   1.414       .  A
C4225      C4230   1.414       .  A
C4226      C4227   1.408       .  A
C4226     Br4238   1.931   1_554  S
C4227      C4228   1.407       .  A
C4227     Br4242   1.929   1_554  S
C4228      C4231   1.484       .  S
C4228      C4229   1.408       .  A
C4229      C4230   1.407       .  A
C4229     Br4237   1.932       .  S
C4230     Br4241   1.932       .  S
C4231      C4232   1.407       .  A
C4231      C4236   1.405       .  A
C4232      C4233   1.408       .  A
C4232     Br4243   1.933       .  S
C4233      C4234   1.420       .  A
C4233     Br4239   1.933       .  S
C4234      C4235   1.421       .  A
C4235      C4236   1.408       .  A
C4235     Br4244   1.934   1_554  S
C4236     Br4240   1.930   1_554  S
C4245      C4246   1.414       .  A
C4245      C4250   1.416       .  A
C4246      C4247   1.407       .  A
C4246     Br4258   1.933       .  S
C4247      C4248   1.408       .  A
C4247     Br4262   1.931       .  S
C4248      C4251   1.483       .  S
C4248      C4249   1.407       .  A
C4249      C4250   1.408       .  A
C4249     Br4257   1.931       .  S
C4250     Br4261   1.932       .  S
C4251      C4252   1.409       .  A
C4251      C4256   1.410       .  A
C4252      C4253   1.406       .  A
C4252     Br4263   1.930       .  S
C4253      C4254   1.410       .  A
C4253     Br4259   1.929       .  S
C4254      C4255   1.407       .  A
C4255      C4256   1.407       .  A
C4255     Br4264   1.929       .  S
C4256     Br4260   1.929       .  S
C4265      C4266   1.413       .  A
C4265      C4270   1.416       .  A
C4266      C4267   1.401       .  A
C4266     Br4278   1.934       .  S
C4267      C4268   1.408       .  A
C4267     Br4282   1.933       .  S
C4268      C4271   1.476       .  S
C4268      C4269   1.408       .  A
C4269      C4270   1.403       .  A
C4269     Br4277   1.933       .  S
C4270     Br4281   1.934       .  S
C4271      C4272   1.410       .  A
C4271      C4276   1.409       .  A
C4272      C4273   1.401       .  A
C4272     Br4283   1.935       .  S
C4273      C4274   1.408       .  A
C4273     Br4279   1.926       .  S
C4274      C4275   1.410       .  A
C4275      C4276   1.403       .  A
C4275     Br4284   1.929       .  S
C4276     Br4280   1.931       .  S
C4285      C4286   1.413       .  A
C4285      C4290   1.416       .  A
C4286      C4287   1.409       .  A
C4286     Br4298   1.930       .  S
C4287      C4288   1.409       .  A
C4287     Br4302   1.929       .  S
C4288      C4291   1.487       .  S
C4288      C4289   1.408       .  A
C4289      C4290   1.407       .  A
C4289     Br4297   1.932       .  S
C4290     Br4301   1.934       .  S
C4291      C4292   1.408       .  A
C4291      C4296   1.407       .  A
C4292      C4293   1.408       .  A
C4292     Br4303   1.933       .  S
C4293      C4294   1.417       .  A
C4293     Br4299   1.933       .  S
C4294      C4295   1.416       .  A
C4295      C4296   1.409       .  A
C4295     Br4304   1.932       .  S
C4296     Br4300   1.930       .  S
C4305      C4306   1.408       .  A
C4305      C4310   1.411       .  A
C4306      C4307   1.402       .  A
C4306     Br4318   1.931       .  S
C4307      C4308   1.407       .  A
C4307     Br4322   1.930       .  S
C4308      C4311   1.475       .  S
C4308      C4309   1.408       .  A
C4309      C4310   1.406       .  A
C4309     Br4317   1.929       .  S
C4310     Br4321   1.930       .  S
C4311      C4312   1.408       .  A
C4311      C4316   1.404       .  A
C4312      C4313   1.404       .  A
C4312     Br4323   1.933       .  S
C4313      C4314   1.413       .  A
C4313     Br4319   1.932       .  S
C4314      C4315   1.418       .  A
C4315      C4316   1.405       .  A
C4315     Br4324   1.935       .  S
C4316     Br4320   1.931       .  S
C4325      C4326   1.407       .  A
C4325      C4330   1.411       .  A
C4326      C4327   1.405       .  A
C4326     Br4338   1.930       .  S
C4327      C4328   1.409       .  A
C4327     Br4342   1.929       .  S
C4328      C4331   1.481       .  S
C4328      C4329   1.409       .  A
C4329      C4330   1.406       .  A
C4329     Br4337   1.929       .  S
C4330     Br4341   1.931       .  S
C4331      C4332   1.407       .  A
C4331      C4336   1.409       .  A
C4332      C4333   1.405       .  A
C4332     Br4343   1.929       .  S
C4333      C4334   1.407       .  A
C4333     Br4339   1.922       .  S
C4334      C4335   1.412       .  A
C4335      C4336   1.407       .  A
C4335     Br4344   1.929       .  S
C4336     Br4340   1.931       .  S
C4345      C4346   1.409       .  A
C4345      C4350   1.408   1_556  A
C4346      C4347   1.405       .  A
C4346     Br4358   1.929       .  S
C4347      C4348   1.410   1_556  A
C4347     Br4362   1.932       .  S
C4348      C4351   1.482       .  S
C4348      C4349   1.410       .  A
C4349      C4350   1.407       .  A
C4349     Br4357   1.928       .  S
C4350     Br4361   1.929       .  S
C4351      C4352   1.406       .  A
C4351      C4356   1.406       .  A
C4352      C4353   1.407       .  A
C4352     Br4363   1.932       .  S
C4353      C4354   1.419       .  A
C4353     Br4359   1.932       .  S
C4354      C4355   1.422       .  A
C4355      C4356   1.408       .  A
C4355     Br4364   1.934   1_554  S
C4356     Br4360   1.933   1_554  S
C4365      C4366   1.411       .  A
C4365      C4370   1.408       .  A
C4366      C4367   1.406       .  A
C4366     Br4378   1.927       .  S
C4367      C4368   1.407       .  A
C4367     Br4382   1.930       .  S
C4368      C4371   1.484       .  S
C4368      C4369   1.410       .  A
C4369      C4370   1.409       .  A
C4369     Br4377   1.928       .  S
C4370     Br4381   1.924       .  S
C4371      C4372   1.410       .  A
C4371      C4376   1.408       .  A
C4372      C4373   1.407       .  A
C4372     Br4383   1.930       .  S
C4373      C4374   1.409       .  A
C4373     Br4379   1.930       .  S
C4374      C4375   1.412       .  A
C4375      C4376   1.408       .  A
C4375     Br4384   1.930       .  S
C4376     Br4380   1.929       .  S
C4385      C4386   1.410       .  A
C4385      C4390   1.409       .  A
C4386      C4387   1.403       .  A
C4386     Br4398   1.933       .  S
C4387      C4388   1.408       .  A
C4387     Br4402   1.931       .  S
C4388      C4391   1.482       .  S
C4388      C4389   1.410       .  A
C4389      C4390   1.408       .  A
C4389     Br4397   1.927       .  S
C4390     Br4401   1.930       .  S
C4391      C4392   1.408       .  A
C4391      C4396   1.408       .  A
C4392      C4393   1.409       .  A
C4392     Br4403   1.929       .  S
C4393      C4394   1.411       .  A
C4393     Br4399   1.929       .  S
C4394      C4395   1.411       .  A
C4395      C4396   1.406       .  A
C4395     Br4404   1.930       .  S
C4396     Br4400   1.931       .  S
C4405      C4406   1.417       .  A
C4405      C4410   1.419       .  A
C4406      C4407   1.404       .  A
C4406     Br4418   1.935       .  S
C4407      C4408   1.405       .  A
C4407     Br4422   1.931       .  S
C4408      C4411   1.480       .  S
C4408      C4409   1.407       .  A
C4409      C4410   1.408       .  A
C4409     Br4417   1.931       .  S
C4410     Br4421   1.936       .  S
C4411      C4412   1.407       .  A
C4411      C4416   1.408       .  A
C4412      C4413   1.407       .  A
C4412     Br4423   1.930       .  S
C4413      C4414   1.412       .  A
C4413     Br4419   1.929       .  S
C4414      C4415   1.409       .  A
C4415      C4416   1.405       .  A
C4415     Br4424   1.929       .  S
C4416     Br4420   1.931   1_556  S
C4425      C4426   1.410       .  A
C4425      C4430   1.411       .  A
C4426      C4427   1.406       .  A
C4426     Br4438   1.930       .  S
C4427      C4428   1.408       .  A
C4427     Br4442   1.929       .  S
C4428      C4431   1.479       .  S
C4428      C4429   1.409       .  A
C4429      C4430   1.406       .  A
C4429     Br4437   1.931       .  S
C4430     Br4441   1.931       .  S
C4431      C4432   1.408       .  A
C4431      C4436   1.407       .  A
C4432      C4433   1.406       .  A
C4432     Br4443   1.928       .  S
C4433      C4434   1.409       .  A
C4433     Br4439   1.930       .  S
C4434      C4435   1.414       .  A
C4435      C4436   1.404       .  A
C4435     Br4444   1.934       .  S
C4436     Br4440   1.932       .  S
C4445      C4446   1.419       .  A
C4445      C4450   1.420       .  A
C4446      C4447   1.405       .  A
C4446     Br4458   1.935       .  S
C4447      C4448   1.405       .  A
C4447     Br4462   1.932       .  S
C4448      C4451   1.486       .  S
C4448      C4449   1.409       .  A
C4449      C4450   1.411       .  A
C4449     Br4457   1.933       .  S
C4450     Br4461   1.932       .  S
C4451      C4452   1.409       .  A
C4451      C4456   1.411       .  A
C4452      C4453   1.406       .  A
C4452     Br4463   1.930       .  S
C4453      C4454   1.411       .  A
C4453     Br4459   1.931       .  S
C4454      C4455   1.413       .  A
C4455      C4456   1.408       .  A
C4455     Br4464   1.931       .  S
C4456     Br4460   1.932       .  S
C4465      C4466   1.410       .  A
C4465      C4470   1.414       .  A
C4466      C4467   1.404       .  A
C4466     Br4478   1.931       .  S
C4467      C4468   1.408       .  A
C4467     Br4482   1.930       .  S
C4468      C4471   1.480       .  S
C4468      C4469   1.407       .  A
C4469      C4470   1.407       .  A
C4469     Br4477   1.930       .  S
C4470     Br4481   1.931       .  S
C4471      C4472   1.405       .  A
C4471      C4476   1.409       .  A
C4472      C4473   1.406       .  A
C4472     Br4483   1.931       .  S
C4473      C4474   1.418       .  A
C4473     Br4479   1.935       .  S
C4474      C4475   1.413       .  A
C4475      C4476   1.407       .  A
C4475     Br4484   1.932       .  S
C4476     Br4480   1.931       .  S
C4485      C4486   1.417       .  A
C4485      C4490   1.416       .  A
C4486      C4487   1.405       .  A
C4486     Br4498   1.933       .  S
C4487      C4488   1.405       .  A
C4487     Br4502   1.932       .  S
C4488      C4491   1.479       .  S
C4488      C4489   1.407       .  A
C4489      C4490   1.407       .  A
C4489     Br4497   1.931       .  S
C4490     Br4501   1.934       .  S
C4491      C4492   1.409       .  A
C4491      C4496   1.408       .  A
C4492      C4493   1.404       .  A
C4492     Br4503   1.932       .  S
C4493      C4494   1.410       .  A
C4493     Br4499   1.931       .  S
C4494      C4495   1.411       .  A
C4495      C4496   1.406       .  A
C4495     Br4504   1.932       .  S
C4496     Br4500   1.929       .  S
C4505      C4506   1.418       .  A
C4505      C4510   1.413       .  A
C4506      C4507   1.408       .  A
C4506     Br4518   1.933       .  S
C4507      C4508   1.406       .  A
C4507     Br4522   1.932       .  S
C4508      C4511   1.483       .  S
C4508      C4509   1.406       .  A
C4509      C4510   1.408       .  A
C4509     Br4517   1.931       .  S
C4510     Br4521   1.921       .  S
C4511      C4512   1.409       .  A
C4511      C4516   1.409       .  A
C4512      C4513   1.407       .  A
C4512     Br4523   1.930       .  S
C4513      C4514   1.411       .  A
C4513     Br4519   1.931       .  S
C4514      C4515   1.408       .  A
C4515      C4516   1.407       .  A
C4515     Br4524   1.930       .  S
C4516     Br4520   1.928       .  S
C4525      C4526   1.409       .  A
C4525      C4530   1.410       .  A
C4526      C4527   1.410   1_655  A
C4526     Br4538   1.928       .  S
C4527      C4528   1.411       .  A
C4527     Br4542   1.929       .  S
C4528      C4531   1.488       .  S
C4528      C4529   1.410   1_455  A
C4529      C4530   1.406       .  A
C4529     Br4537   1.933       .  S
C4530     Br4541   1.930       .  S
C4531      C4532   1.407       .  A
C4531      C4536   1.406       .  A
C4532      C4533   1.409       .  A
C4532     Br4543   1.934       .  S
C4533      C4534   1.421       .  A
C4533     Br4539   1.931       .  S
C4534      C4535   1.422       .  A
C4535      C4536   1.409       .  A
C4535     Br4544   1.930       .  S
C4536     Br4540   1.932   1_455  S
C4545      C4546   1.409       .  A
C4545      C4550   1.409       .  A
C4546      C4547   1.407       .  A
C4546     Br4558   1.930       .  S
C4547      C4548   1.409       .  A
C4547     Br4562   1.928       .  S
C4548      C4551   1.477       .  S
C4548      C4549   1.408       .  A
C4549      C4550   1.402       .  A
C4549     Br4557   1.931       .  S
C4550     Br4561   1.931       .  S
C4551      C4552   1.406       .  A
C4551      C4556   1.408       .  A
C4552      C4553   1.405       .  A
C4552     Br4563   1.931       .  S
C4553      C4554   1.415       .  A
C4553     Br4559   1.934       .  S
C4554      C4555   1.410       .  A
C4555      C4556   1.405       .  A
C4555     Br4564   1.931       .  S
C4556     Br4560   1.930       .  S
C4565      C4566   1.411       .  A
C4565      C4570   1.415       .  A
C4566      C4567   1.412       .  A
C4566     Br4578   1.929       .  S
C4567      C4568   1.411       .  A
C4567     Br4582   1.929       .  S
C4568      C4571   1.489       .  S
C4568      C4569   1.407       .  A
C4569      C4570   1.406       .  A
C4569     Br4577   1.931       .  S
C4570     Br4581   1.932       .  S
C4571      C4572   1.408       .  A
C4571      C4576   1.410       .  A
C4572      C4573   1.407       .  A
C4572     Br4583   1.930       .  S
C4573      C4574   1.413       .  A
C4573     Br4579   1.929       .  S
C4574      C4575   1.410       .  A
C4575      C4576   1.410       .  A
C4575     Br4584   1.922       .  S
C4576     Br4580   1.929       .  S
C4585      C4586   1.432       .  A
C4585      C4590   1.429       .  A
C4586      C4587   1.409       .  A
C4586     Br4598   1.938       .  S
C4587      C4588   1.401       .  A
C4587     Br4602   1.936       .  S
C4588      C4591   1.485       .  S
C4588      C4589   1.404       .  A
C4589      C4590   1.411       .  A
C4589     Br4597   1.935       .  S
C4590     Br4601   1.937       .  S
C4591      C4592   1.406       .  A
C4591      C4596   1.407       .  A
C4592      C4593   1.407       .  A
C4592     Br4603   1.932       .  S
C4593      C4594   1.419       .  A
C4593     Br4599   1.934       .  S
C4594      C4595   1.417       .  A
C4595      C4596   1.408       .  A
C4595     Br4604   1.933       .  S
C4596     Br4600   1.931       .  S
C4605      C4606   1.419       .  A
C4605      C4610   1.419       .  A
C4606      C4607   1.410       .  A
C4606     Br4618   1.933       .  S
C4607      C4608   1.407       .  A
C4607     Br4622   1.931       .  S
C4608      C4611   1.490       .  S
C4608      C4609   1.408       .  A
C4609      C4610   1.410       .  A
C4609     Br4617   1.932       .  S
C4610     Br4621   1.932       .  S
C4611      C4612   1.410       .  A
C4611      C4616   1.407       .  A
C4612      C4613   1.411       .  A
C4612     Br4623   1.931       .  S
C4613      C4614   1.417       .  A
C4613     Br4619   1.932       .  S
C4614      C4615   1.416       .  A
C4615      C4616   1.408       .  A
C4615     Br4624   1.932       .  S
C4616     Br4620   1.930       .  S
C4625      C4626   1.414       .  A
C4625      C4630   1.415       .  A
C4626      C4627   1.406       .  A
C4626     Br4638   1.933       .  S
C4627      C4628   1.409       .  A
C4627     Br4642   1.931       .  S
C4628      C4631   1.480       .  S
C4628      C4629   1.406       .  A
C4629      C4630   1.405       .  A
C4629     Br4637   1.930       .  S
C4630     Br4641   1.934       .  S
C4631      C4632   1.408       .  A
C4631      C4636   1.407       .  A
C4632      C4633   1.406       .  A
C4632     Br4643   1.929       .  S
C4633      C4634   1.410       .  A
C4633     Br4639   1.931       .  S
C4634      C4635   1.412       .  A
C4635      C4636   1.406       .  A
C4635     Br4644   1.930       .  S
C4636     Br4640   1.931       .  S
C4645      C4646   1.410       .  A
C4645      C4650   1.407       .  A
C4646      C4647   1.401       .  A
C4646     Br4658   1.931       .  S
C4647      C4648   1.406       .  A
C4647     Br4662   1.932       .  S
C4648      C4651   1.473       .  S
C4648      C4649   1.409       .  A
C4649      C4650   1.405       .  A
C4649     Br4657   1.928       .  S
C4650     Br4661   1.931       .  S
C4651      C4652   1.405       .  A
C4651      C4656   1.408       .  A
C4652      C4653   1.402       .  A
C4652     Br4663   1.933       .  S
C4653      C4654   1.414       .  A
C4653     Br4659   1.934       .  S
C4654      C4655   1.409       .  A
C4655      C4656   1.405       .  A
C4655     Br4664   1.930       .  S
C4656     Br4660   1.929       .  S
C4665      C4666   1.411       .  A
C4665      C4670   1.408       .  A
C4666      C4667   1.407       .  A
C4666     Br4678   1.931       .  S
C4667      C4668   1.408       .  A
C4667     Br4682   1.929       .  S
C4668      C4671   1.480       .  S
C4668      C4669   1.409       .  A
C4669      C4670   1.404       .  A
C4669     Br4677   1.931       .  S
C4670     Br4681   1.931       .  S
C4671      C4672   1.405       .  A
C4671      C4676   1.408       .  A
C4672      C4673   1.404       .  A
C4672     Br4683   1.931       .  S
C4673      C4674   1.414       .  A
C4673     Br4679   1.931       .  S
C4674      C4675   1.416       .  A
C4675      C4676   1.408       .  A
C4675     Br4684   1.932       .  S
C4676     Br4680   1.930       .  S
C4685      C4686   1.412       .  A
C4685      C4690   1.409       .  A
C4686      C4687   1.409       .  A
C4686     Br4698   1.930       .  S
C4687      C4688   1.409       .  A
C4687     Br4702   1.930       .  S
C4688      C4691   1.485       .  S
C4688      C4689   1.409       .  A
C4689      C4690   1.407       .  A
C4689     Br4697   1.929       .  S
C4690     Br4701   1.929       .  S
C4691      C4692   1.408       .  A
C4691      C4696   1.407       .  A
C4692      C4693   1.410       .  A
C4692     Br4703   1.929       .  S
C4693      C4694   1.413       .  A
C4693     Br4699   1.931       .  S
C4694      C4695   1.416       .  A
C4695      C4696   1.406       .  A
C4695     Br4704   1.934       .  S
C4696     Br4700   1.932       .  S
C4705      C4706   1.415       .  A
C4705      C4710   1.416       .  A
C4706      C4707   1.404       .  A
C4706     Br4718   1.934       .  S
C4707      C4708   1.405   1_655  A
C4707     Br4722   1.931       .  S
C4708      C4711   1.477       .  S
C4708      C4709   1.407       .  A
C4709      C4710   1.405   1_455  A
C4709     Br4717   1.932       .  S
C4710     Br4721   1.934   1_655  S
C4711      C4712   1.407       .  A
C4711      C4716   1.405       .  A
C4712      C4713   1.405       .  A
C4712     Br4723   1.934   1_455  S
C4713      C4714   1.418       .  A
C4713     Br4719   1.933       .  S
C4714      C4715   1.416       .  A
C4715      C4716   1.405       .  A
C4715     Br4724   1.932       .  S
C4716     Br4720   1.931       .  S
C4725      C4726   1.414       .  A
C4725      C4730   1.411       .  A
C4726      C4727   1.412       .  A
C4726     Br4738   1.930       .  S
C4727      C4728   1.410       .  A
C4727     Br4742   1.929       .  S
C4728      C4731   1.491       .  S
C4728      C4729   1.409       .  A
C4729      C4730   1.407       .  A
C4729     Br4737   1.929       .  S
C4730     Br4741   1.931       .  S
C4731      C4732   1.405       .  A
C4731      C4736   1.410       .  A
C4732      C4733   1.410       .  A
C4732     Br4743   1.932       .  S
C4733      C4734   1.422       .  A
C4733     Br4739   1.934       .  S
C4734      C4735   1.416       .  A
C4735      C4736   1.412       .  A
C4735     Br4744   1.931       .  S
C4736     Br4740   1.931       .  S
C4745      C4746   1.413       .  A
C4745      C4750   1.408       .  A
C4746      C4747   1.401       .  A
C4746     Br4758   1.932       .  S
C4747      C4748   1.405       .  A
C4747     Br4762   1.932       .  S
C4748      C4751   1.474       .  S
C4748      C4749   1.409       .  A
C4749      C4750   1.406       .  A
C4749     Br4757   1.928       .  S
C4750     Br4761   1.930       .  S
C4751      C4752   1.406       .  A
C4751      C4756   1.408       .  A
C4752      C4753   1.403       .  A
C4752     Br4763   1.930       .  S
C4753      C4754   1.412       .  A
C4753     Br4759   1.933       .  S
C4754      C4755   1.409       .  A
C4755      C4756   1.404       .  A
C4755     Br4764   1.931       .  S
C4756     Br4760   1.930       .  S
C4765      C4766   1.415       .  A
C4765      C4770   1.414       .  A
C4766      C4767   1.404       .  A
C4766     Br4778   1.933       .  S
C4767      C4768   1.407       .  A
C4767     Br4782   1.932       .  S
C4768      C4771   1.477       .  S
C4768      C4769   1.406       .  A
C4769      C4770   1.405       .  A
C4769     Br4777   1.931       .  S
C4770     Br4781   1.931       .  S
C4771      C4772   1.406       .  A
C4771      C4776   1.405       .  A
C4772      C4773   1.405       .  A
C4772     Br4783   1.934       .  S
C4773      C4774   1.419       .  A
C4773     Br4779   1.935       .  S
C4774      C4775   1.417       .  A
C4775      C4776   1.404       .  A
C4775     Br4784   1.934       .  S
C4776     Br4780   1.931       .  S
C4785      C4786   1.414       .  A
C4785      C4790   1.419       .  A
C4786      C4787   1.402       .  A
C4786     Br4798   1.934       .  S
C4787      C4788   1.406       .  A
C4787     Br4802   1.932       .  S
C4788      C4791   1.468       .  S
C4788      C4789   1.402       .  A
C4789      C4790   1.401       .  A
C4789     Br4797   1.932       .  S
C4790     Br4801   1.935       .  S
C4791      C4792   1.406       .  A
C4791      C4796   1.406       .  A
C4792      C4793   1.402       .  A
C4792     Br4803   1.931       .  S
C4793      C4794   1.412       .  A
C4793     Br4799   1.931       .  S
C4794      C4795   1.407       .  A
C4795      C4796   1.400       .  A
C4795     Br4804   1.930       .  S
C4796     Br4800   1.930       .  S
C4805      C4806   1.410       .  A
C4805      C4810   1.414       .  A
C4806      C4807   1.404       .  A
C4806     Br4818   1.931       .  S
C4807      C4808   1.408       .  A
C4807     Br4822   1.932       .  S
C4808      C4811   1.480       .  S
C4808      C4809   1.408       .  A
C4809      C4810   1.408       .  A
C4809     Br4817   1.931       .  S
C4810     Br4821   1.931       .  S
C4811      C4812   1.407       .  A
C4811      C4816   1.407       .  A
C4812      C4813   1.406       .  A
C4812     Br4823   1.931       .  S
C4813      C4814   1.415       .  A
C4813     Br4819   1.932       .  S
C4814      C4815   1.417       .  A
C4815      C4816   1.405       .  A
C4815     Br4824   1.935       .  S
C4816     Br4820   1.932       .  S
C4825      C4826   1.411       .  A
C4825      C4830   1.411       .  A
C4826      C4827   1.407       .  A
C4826     Br4838   1.930       .  S
C4827      C4828   1.408       .  A
C4827     Br4842   1.929       .  S
C4828      C4831   1.476       .  S
C4828      C4829   1.406       .  A
C4829      C4830   1.402       .  A
C4829     Br4837   1.933       .  S
C4830     Br4841   1.931       .  S
C4831      C4832   1.406       .  A
C4831      C4836   1.408       .  A
C4832      C4833   1.403       .  A
C4832     Br4843   1.932       .  S
C4833      C4834   1.413       .  A
C4833     Br4839   1.934       .  S
C4834      C4835   1.410       .  A
C4835      C4836   1.406       .  A
C4835     Br4844   1.930       .  S
C4836     Br4840   1.929       .  S
C4845      C4846   1.413       .  A
C4845      C4850   1.413   1_554  A
C4846      C4847   1.407       .  A
C4846     Br4858   1.932       .  S
C4847      C4848   1.408       .  A
C4847     Br4862   1.929       .  S
C4848      C4851   1.482   1_655  S
C4848      C4849   1.408   1_654  A
C4849      C4850   1.405   1_455  A
C4849     Br4857   1.932       .  S
C4850     Br4861   1.932       .  S
C4851      C4852   1.403   1_454  A
C4851      C4856   1.403       .  A
C4852      C4853   1.406   1_655  A
C4852     Br4863   1.937       .  S
C4853      C4854   1.427   1_556  A
C4853     Br4859   1.937   1_455  S
C4854      C4855   1.426       .  A
C4855      C4856   1.410       .  A
C4855     Br4864   1.935       .  S
C4856     Br4860   1.932       .  S
C4865      C4866   1.410       .  A
C4865      C4870   1.411       .  A
C4866      C4867   1.407       .  A
C4866     Br4878   1.931       .  S
C4867      C4868   1.408       .  A
C4867     Br4882   1.927       .  S
C4868      C4871   1.484       .  S
C4868      C4869   1.410       .  A
C4869      C4870   1.407       .  A
C4869     Br4877   1.931       .  S
C4870     Br4881   1.931       .  S
C4871      C4872   1.408       .  A
C4871      C4876   1.408       .  A
C4872      C4873   1.409       .  A
C4872     Br4883   1.928       .  S
C4873      C4874   1.412       .  A
C4873     Br4879   1.929       .  S
C4874      C4875   1.413       .  A
C4875      C4876   1.406       .  A
C4875     Br4884   1.932       .  S
C4876     Br4880   1.932       .  S
C4885      C4886   1.418   1_655  A
C4885      C4890   1.416       .  A
C4886      C4887   1.410       .  A
C4886     Br4898   1.931       .  S
C4887      C4888   1.406   1_455  A
C4887     Br4902   1.931       .  S
C4888      C4891   1.489       .  S
C4888      C4889   1.409       .  A
C4889      C4890   1.410       .  A
C4889     Br4897   1.931       .  S
C4890     Br4901   1.932       .  S
C4891      C4892   1.407   1_655  A
C4891      C4896   1.408       .  A
C4892      C4893   1.409       .  A
C4892     Br4903   1.929       .  S
C4893      C4894   1.418   1_455  A
C4893     Br4899   1.934       .  S
C4894      C4895   1.421       .  A
C4895      C4896   1.410       .  A
C4895     Br4904   1.933       .  S
C4896     Br4900   1.931       .  S
C4905      C4906   1.416       .  A
C4905      C4910   1.414       .  A
C4906      C4907   1.406       .  A
C4906     Br4918   1.933       .  S
C4907      C4908   1.405       .  A
C4907     Br4922   1.930       .  S
C4908      C4911   1.480       .  S
C4908      C4909   1.408       .  A
C4909      C4910   1.406       .  A
C4909     Br4917   1.933       .  S
C4910     Br4921   1.932       .  S
C4911      C4912   1.408       .  A
C4911      C4916   1.409       .  A
C4912      C4913   1.406       .  A
C4912     Br4923   1.930       .  S
C4913      C4914   1.413       .  A
C4913     Br4919   1.932       .  S
C4914      C4915   1.409       .  A
C4915      C4916   1.404       .  A
C4915     Br4924   1.931       .  S
C4916     Br4920   1.931       .  S
C4925      C4926   1.410       .  A
C4925      C4930   1.409       .  A
C4926      C4927   1.404       .  A
C4926     Br4938   1.930       .  S
C4927      C4928   1.408       .  A
C4927     Br4942   1.930       .  S
C4928      C4931   1.480       .  S
C4928      C4929   1.409       .  A
C4929      C4930   1.407       .  A
C4929     Br4937   1.928       .  S
C4930     Br4941   1.930       .  S
C4931      C4932   1.408       .  A
C4931      C4936   1.408       .  A
C4932      C4933   1.409       .  A
C4932     Br4943   1.929       .  S
C4933      C4934   1.413       .  A
C4933     Br4939   1.930       .  S
C4934      C4935   1.411       .  A
C4935      C4936   1.403       .  A
C4935     Br4944   1.933       .  S
C4936     Br4940   1.932       .  S
C4945      C4946   1.416       .  A
C4945      C4950   1.420       .  A
C4946      C4947   1.406       .  A
C4946     Br4958   1.931       .  S
C4947      C4948   1.406       .  A
C4947     Br4962   1.931       .  S
C4948      C4951   1.482   1_556  S
C4948      C4949   1.407   1_556  A
C4949      C4950   1.407   1_554  A
C4949     Br4957   1.933       .  S
C4950     Br4961   1.934   1_556  S
C4951      C4952   1.409   1_554  A
C4951      C4956   1.407       .  A
C4952      C4953   1.408   1_556  A
C4952     Br4963   1.931       .  S
C4953      C4954   1.415       .  A
C4953     Br4959   1.933   1_554  S
C4954      C4955   1.414       .  A
C4955      C4956   1.404       .  A
C4955     Br4964   1.933       .  S
C4956     Br4960   1.932       .  S
C4965      C4966   1.412       .  A
C4965      C4970   1.414       .  A
C4966      C4967   1.405       .  A
C4966     Br4978   1.933       .  S
C4967      C4968   1.408       .  A
C4967     Br4982   1.932       .  S
C4968      C4971   1.480       .  S
C4968      C4969   1.407       .  A
C4969      C4970   1.406       .  A
C4969     Br4977   1.930       .  S
C4970     Br4981   1.933       .  S
C4971      C4972   1.408       .  A
C4971      C4976   1.409       .  A
C4972      C4973   1.405       .  A
C4972     Br4983   1.931       .  S
C4973      C4974   1.410       .  A
C4973     Br4979   1.930       .  S
C4974      C4975   1.408       .  A
C4975      C4976   1.406       .  A
C4975     Br4984   1.930       .  S
C4976     Br4980   1.930       .  S
C4985      C4986   1.413       .  A
C4985      C4990   1.412       .  A
C4986      C4987   1.406       .  A
C4986     Br4998   1.932       .  S
C4987      C4988   1.407       .  A
C4987     Br5002   1.929       .  S
C4988      C4991   1.477       .  S
C4988      C4989   1.407       .  A
C4989      C4990   1.403       .  A
C4989     Br4997   1.932       .  S
C4990     Br5001   1.933       .  S
C4991      C4992   1.408       .  A
C4991      C4996   1.406       .  A
C4992      C4993   1.407       .  A
C4992     Br5003   1.929       .  S
C4993      C4994   1.409       .  A
C4993     Br4999   1.926       .  S
C4994      C4995   1.410       .  A
C4995      C4996   1.403       .  A
C4995     Br5004   1.928       .  S
C4996     Br5000   1.931       .  S
C5005      C5006   1.419       .  A
C5005      C5010   1.418       .  A
C5006      C5007   1.405   1_556  A
C5006     Br5018   1.936       .  S
C5007      C5008   1.406   1_554  A
C5007     Br5022   1.932       .  S
C5008      C5011   1.479   1_556  S
C5008      C5009   1.405       .  A
C5009      C5010   1.405       .  A
C5009     Br5017   1.932       .  S
C5010     Br5021   1.933       .  S
C5011      C5012   1.407   1_554  A
C5011      C5016   1.406       .  A
C5012      C5013   1.406   1_556  A
C5012     Br5023   1.933       .  S
C5013      C5014   1.417       .  A
C5013     Br5019   1.933       .  S
C5014      C5015   1.413       .  A
C5015      C5016   1.404       .  A
C5015     Br5024   1.931       .  S
C5016     Br5020   1.930       .  S
C5025      C5026   1.408       .  A
C5025      C5030   1.408       .  A
C5026      C5027   1.405       .  A
C5026     Br5038   1.929       .  S
C5027      C5028   1.409       .  A
C5027     Br5042   1.931       .  S
C5028      C5031   1.478       .  S
C5028      C5029   1.408       .  A
C5029      C5030   1.405       .  A
C5029     Br5037   1.928   1_556  S
C5030     Br5041   1.930       .  S
C5031      C5032   1.407       .  A
C5031      C5036   1.406       .  A
C5032      C5033   1.405       .  A
C5032     Br5043   1.931       .  S
C5033      C5034   1.414       .  A
C5033     Br5039   1.934   1_556  S
C5034      C5035   1.413       .  A
C5035      C5036   1.405       .  A
C5035     Br5044   1.931       .  S
C5036     Br5040   1.930       .  S
C5045      C5046   1.405       .  A
C5045      C5050   1.407       .  A
C5046      C5047   1.400       .  A
C5046     Br5058   1.927       .  S
C5047      C5048   1.410       .  A
C5047     Br5062   1.933       .  S
C5048      C5051   1.478       .  S
C5048      C5049   1.411       .  A
C5049      C5050   1.407       .  A
C5049     Br5057   1.930       .  S
C5050     Br5061   1.925       .  S
C5051      C5052   1.408       .  A
C5051      C5056   1.409       .  A
C5052      C5053   1.402       .  A
C5052     Br5063   1.934       .  S
C5053      C5054   1.414       .  A
C5053     Br5059   1.933       .  S
C5054      C5055   1.412       .  A
C5055      C5056   1.406       .  A
C5055     Br5064   1.932       .  S
C5056     Br5060   1.931       .  S
C5065      C5066   1.415       .  A
C5065      C5070   1.416       .  A
C5066      C5067   1.407       .  A
C5066     Br5078   1.932   1_554  S
C5067      C5068   1.407   1_655  A
C5067     Br5082   1.930   1_554  S
C5068      C5071   1.479       .  S
C5068      C5069   1.406       .  A
C5069      C5070   1.403   1_455  A
C5069     Br5077   1.933       .  S
C5070     Br5081   1.935       .  S
C5071      C5072   1.407       .  A
C5071      C5076   1.406       .  A
C5072      C5073   1.409       .  A
C5072     Br5083   1.930   1_554  S
C5073      C5074   1.417       .  A
C5073     Br5079   1.931   1_554  S
C5074      C5075   1.416       .  A
C5075      C5076   1.402       .  A
C5075     Br5084   1.935       .  S
C5076     Br5080   1.934   1_455  S
C5085      C5086   1.413       .  A
C5085      C5090   1.410       .  A
C5086      C5087   1.407       .  A
C5086     Br5098   1.932       .  S
C5087      C5088   1.408       .  A
C5087     Br5102   1.930       .  S
C5088      C5091   1.482       .  S
C5088      C5089   1.408       .  A
C5089      C5090   1.405       .  A
C5089     Br5097   1.930       .  S
C5090     Br5101   1.931       .  S
C5091      C5092   1.406       .  A
C5091      C5096   1.408       .  A
C5092      C5093   1.407       .  A
C5092     Br5103   1.931       .  S
C5093      C5094   1.417       .  A
C5093     Br5099   1.933       .  S
C5094      C5095   1.416       .  A
C5095      C5096   1.406       .  A
C5095     Br5104   1.934       .  S
C5096     Br5100   1.932       .  S
C5105      C5106   1.410       .  A
C5105      C5110   1.409       .  A
C5106      C5107   1.402       .  A
C5106     Br5118   1.932       .  S
C5107      C5108   1.407       .  A
C5107     Br5122   1.932       .  S
C5108      C5111   1.469       .  S
C5108      C5109   1.406       .  A
C5109      C5110   1.402       .  A
C5109     Br5117   1.930       .  S
C5110     Br5121   1.931       .  S
C5111      C5112   1.406       .  A
C5111      C5116   1.408       .  A
C5112      C5113   1.401       .  A
C5112     Br5123   1.929       .  S
C5113      C5114   1.407       .  A
C5113     Br5119   1.930       .  S
C5114      C5115   1.407       .  A
C5115      C5116   1.401       .  A
C5115     Br5124   1.931       .  S
C5116     Br5120   1.931       .  S
C5125      C5126   1.422       .  A
C5125      C5130   1.422       .  A
C5126      C5127   1.406       .  A
C5126     Br5138   1.935   1_455  S
C5127      C5128   1.404       .  A
C5127     Br5142   1.932       .  S
C5128      C5131   1.487       .  S
C5128      C5129   1.408       .  A
C5129      C5130   1.411       .  A
C5129     Br5137   1.933       .  S
C5130     Br5141   1.935       .  S
C5131      C5132   1.411       .  A
C5131      C5136   1.409       .  A
C5132      C5133   1.411       .  A
C5132     Br5143   1.930       .  S
C5133      C5134   1.412       .  A
C5133     Br5139   1.929       .  S
C5134      C5135   1.412       .  A
C5135      C5136   1.405       .  A
C5135     Br5144   1.931   1_455  S
C5136     Br5140   1.932   1_455  S
C5145      C5146   1.412       .  A
C5145      C5150   1.414       .  A
C5146      C5147   1.405       .  A
C5146     Br5158   1.932       .  S
C5147      C5148   1.408       .  A
C5147     Br5162   1.932       .  S
C5148      C5151   1.476       .  S
C5148      C5149   1.405       .  A
C5149      C5150   1.404       .  A
C5149     Br5157   1.930       .  S
C5150     Br5161   1.933       .  S
C5151      C5152   1.407       .  A
C5151      C5156   1.408       .  A
C5152      C5153   1.404       .  A
C5152     Br5163   1.930       .  S
C5153      C5154   1.410       .  A
C5153     Br5159   1.931       .  S
C5154      C5155   1.411       .  A
C5155      C5156   1.405       .  A
C5155     Br5164   1.932       .  S
C5156     Br5160   1.931       .  S
C5165      C5166   1.410       .  A
C5165      C5170   1.407       .  A
C5166      C5167   1.404       .  A
C5166     Br5178   1.930       .  S
C5167      C5168   1.407       .  A
C5167     Br5182   1.930       .  S
C5168      C5171   1.478       .  S
C5168      C5169   1.409       .  A
C5169      C5170   1.405       .  A
C5169     Br5177   1.929       .  S
C5170     Br5181   1.930       .  S
C5171      C5172   1.408       .  A
C5171      C5176   1.404       .  A
C5172      C5173   1.408       .  A
C5172     Br5183   1.931       .  S
C5173      C5174   1.414       .  A
C5173     Br5179   1.930       .  S
C5174      C5175   1.418       .  A
C5175      C5176   1.404       .  A
C5175     Br5184   1.935       .  S
C5176     Br5180   1.932       .  S
