geometry optimzed in LAMMPS
_audit_creation_date              2020-12-01 
_audit_creation_method            'lammps2cif' 
_symmetry_space_group_name_H-M    'P1' 
_symmetry_Int_Tables_number       1 
_symmetry_cell_setting            triclinic 
loop_ 
_symmetry_equiv_pos_as_xyz 
  x,y,z 
_cell_length_a                    47.3633209 
_cell_length_b                    48.272713531296226 
_cell_length_c                    47.67032940378454 
_cell_angle_alpha                 89.43947708395743 
_cell_angle_beta                  90.45560180231637 
_cell_angle_gamma                 90.21555253853312 
loop_ 
_atom_site_label 
_atom_site_type_symbol 
_atom_site_fract_x 
_atom_site_fract_y 
_atom_site_fract_z 
_atom_site_charge 
C1          C  0.79773151  0.82474338  0.02503372     0.81200
N2          N  0.81534325  0.84668393  0.02180932    -0.77100
C3          C  0.82545952  0.85335533  0.99613213     0.83600
N4          N  0.81794574  0.83806184  0.97353344    -0.77100
C5          C  0.80034353  0.81599300  0.97671285     0.83700
N6          N  0.79013065  0.80935742  0.00248188    -0.78800
C7          C  0.76072577  0.21397252  0.02811195     0.81200
N8          N  0.74948676  0.22098795  0.00270134    -0.77100
C9          C  0.76152942  0.21165330  0.97880316     0.83600
N10         N  0.78484840  0.19538476  0.98035738    -0.77100
C11         C  0.79614431  0.18835896  0.00570012     0.83700
N12         N  0.78404772  0.19767332  0.02955044    -0.78800
C13         C  0.19522490  0.85170959  0.02616493     0.81200
N14         N  0.17282948  0.86898456  0.02400246    -0.77100
C15         C  0.16487103  0.87932715  0.99866579     0.83600
N16         N  0.17931490  0.87236267  0.97532660    -0.77100
C17         C  0.20181213  0.85507299  0.97740001     0.83700
N18         N  0.20975127  0.84464688  0.00284749    -0.78800
C19         C  0.78853536  0.05076449  0.79743526     0.81200
N20         N  0.80721468  0.04966507  0.81907637    -0.77100
C21         C  0.81814428  0.02508322  0.82758076     0.83600
N22         N  0.81042723  0.00143751  0.81436333    -0.77100
C23         C  0.79176026  0.00244018  0.79258833     0.83700
N24         N  0.78073316  0.02714093  0.78412111    -0.78800
C25         C  0.95957154  0.21125384  0.78642412     0.81200
N26         N  0.95902461  0.19795227  0.81167390    -0.77100
C27         C  0.98348150  0.18984865  0.82430298     0.83600
N28         N  0.00854896  0.19506857  0.81163580    -0.77100
C29         C  0.00920685  0.20830070  0.78636296     0.83700
N30         N  0.98470366  0.21647437  0.77380750    -0.78800
C31         C  0.96088118  0.84592758  0.80029889     0.81200
N32         N  0.98422099  0.83753861  0.78638678    -0.77100
C33         C  0.00971257  0.84923894  0.79225293     0.83600
N34         N  0.01182377  0.86917772  0.81209462    -0.77100
C35         C  0.98846803  0.87752364  0.82594393     0.83700
N36         N  0.96306829  0.86586473  0.82003495    -0.78800
C37         C  0.18550232  0.05410326  0.80982506     0.81200
N38         N  0.19571595  0.02944044  0.80135345    -0.77100
C39         C  0.18552408  0.00570249  0.81284685     0.83600
N40         N  0.16511860  0.00656521  0.83259371    -0.77100
C41         C  0.15502278  0.03133318  0.84093740     0.83700
N42         N  0.16518648  0.05507759  0.82956704    -0.78800
C43         C  0.95700018  0.80965868  0.17814531     0.81200
N44         N  0.95709403  0.83329843  0.16240792    -0.77100
C45         C  0.98194544  0.84523716  0.15484066     0.83600
N46         N  0.00670426  0.83356420  0.16308225    -0.77100
C47         C  0.00674660  0.80995757  0.17878691     0.83700
N48         N  0.98186758  0.79802679  0.18639275    -0.78800
C49         C  0.77365638  0.05367039  0.19571741     0.81200
N50         N  0.79559263  0.05162337  0.17773721    -0.77100
C51         C  0.80356264  0.02652323  0.16813262     0.83600
N52         N  0.78955272  0.00337311  0.17653193    -0.77100
C53         C  0.76756401  0.00528087  0.19451379     0.83700
N54         N  0.75958027  0.03047257  0.20416213    -0.78800
C55         C  0.95587028  0.20518130  0.22973830     0.81200
N56         N  0.98074515  0.21384744  0.24119156    -0.77100
C57         C  0.00562326  0.20572198  0.22986216     0.83600
N58         N  0.00554929  0.18914551  0.20699365    -0.77100
C59         C  0.98075383  0.18054491  0.19549928     0.83700
N60         N  0.95596054  0.18859630  0.20688275    -0.78800
Zr61       Zr  0.26428206  0.31256847  0.28661381     2.17500
O62         O  0.29956205  0.31134850  0.32416786    -0.50400
O63         O  0.26110353  0.36278827  0.28525975    -0.73600
O64         O  0.31160596  0.32280950  0.26999661    -0.80400
O65         O  0.20554170  0.29975062  0.34012092    -0.82100
O66         O  0.31665717  0.30559962  0.22602684    -0.77700
O67         O  0.24944406  0.31845936  0.33476598    -0.89400
O68         O  0.22868570  0.37530872  0.25210966    -0.75300
O69         O  0.25786688  0.32370062  0.23822854    -0.84800
O70         O  0.21543023  0.32270647  0.28119425    -0.84500
O71         O  0.27950819  0.27217980  0.26191986    -0.71300
O72         O  0.23964180  0.27140245  0.30114543    -0.83400
Zr73       Zr  0.19832479  0.25257161  0.22075670     2.26400
Zr74       Zr  0.27205613  0.28321620  0.21323845     2.06300
Zr75       Zr  0.19059242  0.28151676  0.29462880     2.10000
Zr76       Zr  0.20884683  0.33331838  0.23286036     1.78800
O77         O  0.17754419  0.24895777  0.33167723    -0.92200
O78         O  0.22348107  0.36040490  0.19208335    -0.40000
O79         O  0.18314742  0.29250596  0.24603187    -0.76700
O80         O  0.22302392  0.29384133  0.20652582    -0.95300
O81         O  0.24710033  0.24214128  0.22671010    -0.88700
O82         O  0.20464275  0.24151833  0.26919423    -0.91500
C83         C  0.24701098  0.38081003  0.27111692     1.02300
C84         C  0.22772199  0.31219049  0.34943870     1.15200
C85         C  0.32594744  0.31828088  0.24782968     1.06000
O86         O  0.28699943  0.31324933  0.17479147    -0.93700
O87         O  0.25776085  0.26413134  0.16783626    -0.89400
O88         O  0.21472065  0.24363275  0.17349837    -0.82500
C89         C  0.23622066  0.25049120  0.15873326     1.12600
O90         O  0.28999264  0.22698075  0.31126234    -0.95600
Zr91       Zr  0.25342389  0.23153965  0.27518892     1.88900
O92         O  0.20063568  0.20228847  0.22213052    -0.72300
O93         O  0.30784035  0.24844556  0.20389359    -0.51500
O94         O  0.29368542  0.20615599  0.25718686    -0.96200
O95         O  0.23706512  0.20467325  0.31556976    -0.53400
O96         O  0.23351301  0.18980574  0.25495081    -0.72800
C97         C  0.21492124  0.18426892  0.23613508     0.99600
O98         O  0.16220187  0.25893274  0.18435172    -0.61600
O99         O  0.15337991  0.31429350  0.30560269    -0.56400
O100        O  0.15100350  0.24201066  0.23719362    -0.93100
O101        O  0.14573096  0.26044932  0.28068268    -0.91500
O102        O  0.16910064  0.35791406  0.25288021    -0.91900
O103        O  0.17114427  0.33994884  0.19843734    -0.90700
C104        C  0.13649993  0.24738040  0.25908989     1.18400
H105        H  0.20999668  0.33805413  0.29280066     0.34300
H106        H  0.21924019  0.29783522  0.18696964     0.45200
H107        H  0.19316217  0.22577001  0.27449817     0.38700
H108        H  0.29927619  0.26879826  0.26565288     0.35200
H109        H  0.21522254  0.37897525  0.19491352     0.27000
H110        H  0.32016778  0.25717689  0.18961995     0.32900
H111        H  0.29130118  0.18700922  0.26445128     0.38800
H112        H  0.17017504  0.37680978  0.24467707     0.33300
H113        H  0.14357882  0.30592029  0.32189378     0.32200
H114        H  0.15874197  0.25518698  0.33793381     0.33900
H115        H  0.24155341  0.18519046  0.31114457     0.32800
H116        H  0.17023915  0.32229741  0.18807700     0.36800
H117        H  0.14714460  0.27000490  0.19310452     0.29500
H118        H  0.30932606  0.32951707  0.32339755     0.33800
H119        H  0.29327280  0.20684567  0.31363435     0.36600
H120        H  0.16324587  0.33066839  0.31334521     0.29200
H121        H  0.17057187  0.27193964  0.17051510     0.42100
H122        H  0.28382736  0.33226863  0.18162858     0.32200
H123        H  0.24402980  0.36322385  0.19478037     0.39800
H124        H  0.21620518  0.20553991  0.31473902     0.31600
H125        H  0.31964425  0.24768175  0.22111420     0.31700
H126        H  0.31383283  0.29769210  0.31826284     0.32000
C127        C  0.18892347  0.05344928  0.19986744     0.81200
N128        N  0.20361060  0.03035509  0.20734263    -0.77100
C129        C  0.19589566  0.00536229  0.19676477     0.83600
N130        N  0.17356443  0.00354223  0.17882215    -0.77100
C131        C  0.15897987  0.02663702  0.17141167     0.83700
N132        N  0.16669828  0.05153001  0.18190709    -0.78800
Zr133      Zr  0.26533992  0.74913331  0.28555302     2.17500
O134        O  0.30049549  0.71232482  0.28471747    -0.50400
O135        O  0.26163815  0.74691903  0.33637343    -0.73600
O136        O  0.31277924  0.76547334  0.29661706    -0.80400
O137        O  0.20793303  0.69603441  0.26666066    -0.82100
O138        O  0.31754709  0.81031857  0.28218105    -0.77700
O139        O  0.25109555  0.70093978  0.28753117    -0.89400
O140        O  0.22832469  0.77759491  0.35016555    -0.75300
O141        O  0.25839727  0.79588634  0.29914871    -0.84800
O142        O  0.21622016  0.75274434  0.29511914    -0.84500
O143        O  0.28097307  0.77634297  0.24611348    -0.71300
O144        O  0.24130081  0.73748771  0.24274362    -0.83400
Zr145      Zr  0.19942573  0.81673079  0.22717843     2.26400
Zr146      Zr  0.27297989  0.82340624  0.25965138     2.06300
Zr147      Zr  0.19195580  0.74198866  0.25228820     2.10000
Zr148      Zr  0.20918335  0.79953638  0.30823324     1.78800
O149        O  0.17745076  0.70831980  0.21723180    -0.92200
O150        O  0.22252683  0.83703294  0.33953328    -0.40000
O151        O  0.18395336  0.78878202  0.26598118    -0.76700
O152        O  0.22378883  0.82835328  0.26988197    -0.95300
O153        O  0.24835975  0.81270459  0.21718181    -0.88700
O154        O  0.20629882  0.77000730  0.21324628    -0.91500
C155        C  0.24704662  0.75908106  0.35510810     1.02300
C156        C  0.22997302  0.68645547  0.27918541     1.15200
C157        C  0.32697799  0.78795866  0.29363117     1.06000
O158        O  0.28637508  0.85934178  0.29272106    -0.93700
O159        O  0.25874103  0.86884438  0.24151032    -0.89400
O160        O  0.21531731  0.86416204  0.22105037    -0.82500
C161        C  0.23700603  0.87841039  0.22835746     1.12600
O162        O  0.29058313  0.73038408  0.19540493    -0.95600
Zr163      Zr  0.25532718  0.76597129  0.20389169     1.88900
O164        O  0.20289754  0.82014337  0.17644907    -0.72300
O165        O  0.30913356  0.83568890  0.22559237    -0.51500
O166        O  0.29663254  0.78583009  0.18091710    -0.96200
O167        O  0.23855230  0.72793184  0.17485417    -0.53400
O168        O  0.23695461  0.79010634  0.16275555    -0.72800
C169        C  0.21822563  0.80865164  0.15783313     0.94600
O170        O  0.16280962  0.85117982  0.23548421    -0.61600
O171        O  0.15620887  0.72678156  0.28564525    -0.56400
O172        O  0.15232282  0.80067490  0.21484863    -0.93100
O173        O  0.14675961  0.75681907  0.23211626    -0.91500
O174        O  0.16775206  0.77923572  0.33042271    -0.91900
O175        O  0.17309424  0.83484972  0.31365377    -0.90700
C176        C  0.13762495  0.77878956  0.21962108     1.18400
H177        H  0.21069551  0.74011411  0.30994195     0.34300
H178        H  0.21981663  0.84729150  0.27481950     0.45200
H179        H  0.19515893  0.76565567  0.19679533     0.38700
H180        H  0.30079174  0.77323335  0.24277538     0.35200
H181        H  0.21259498  0.83284783  0.35729047     0.27000
H182        H  0.31993256  0.85089969  0.23448388     0.32900
H183        H  0.29366924  0.78233567  0.16067020     0.38800
H184        H  0.16844722  0.78603319  0.34994659     0.33300
H185        H  0.14460417  0.71315670  0.27523770     0.32200
H186        H  0.16136497  0.69828355  0.22580563     0.33900
H187        H  0.22419132  0.73617103  0.16213289     0.32800
H188        H  0.15854668  0.83032902  0.29937164     0.36800
H189        H  0.14769207  0.84128291  0.24578095     0.29500
H190        H  0.31002823  0.71267911  0.30328070     0.33800
H191        H  0.29380696  0.73064252  0.17490083     0.36600
H192        H  0.16646344  0.71554812  0.29988005     0.29200
H193        H  0.17090738  0.86375336  0.24975784     0.42100
H194        H  0.26926466  0.86218810  0.30411782     0.32200
H195        H  0.24270442  0.83375620  0.34395914     0.39800
H196        H  0.22761728  0.71595369  0.18781093     0.31600
H197        H  0.32231201  0.81981586  0.22570096     0.31700
H198        H  0.31497698  0.71855240  0.27115259     0.32000
Zr199      Zr  0.76371635  0.25334096  0.21915031     2.17500
O200        O  0.79885485  0.25646737  0.18204298    -0.50400
O201        O  0.76085750  0.20294592  0.21897818    -0.73600
O202        O  0.81101506  0.24243808  0.23596718    -0.80400
O203        O  0.70507642  0.26764443  0.16548177    -0.82100
O204        O  0.81573978  0.25721040  0.28098389    -0.77700
O205        O  0.74866308  0.24833755  0.17078245    -0.89400
O206        O  0.72714768  0.18917691  0.24987058    -0.75300
O207        O  0.75659832  0.23977024  0.26666783    -0.84800
O208        O  0.71462837  0.24334858  0.22294569    -0.84500
O209        O  0.77913451  0.29237736  0.24634185    -0.71300
O210        O  0.73968261  0.29542570  0.20629048    -0.83400
Zr211      Zr  0.69792622  0.31059056  0.28656268     2.26400
Zr212      Zr  0.77106204  0.27865623  0.29420375     2.06300
Zr213      Zr  0.69039355  0.28534725  0.21111134     2.10000
Zr214      Zr  0.70741409  0.23039165  0.27050319     1.78800
O215        O  0.67859380  0.32033225  0.17586996    -0.92200
O216        O  0.72145905  0.20105843  0.31002967    -0.40000
O217        O  0.68253369  0.27204129  0.25892260    -0.76700
O218        O  0.72174652  0.26839776  0.29932650    -0.95300
O219        O  0.74689902  0.32062347  0.28232447    -0.88700
O220        O  0.70468999  0.32409157  0.23884981    -0.91500
C221        C  0.74621928  0.18435075  0.23170615     1.02300
C222        C  0.72690983  0.25504881  0.15610421     1.15200
C223        C  0.82518492  0.24575992  0.25871767     1.06000
O224        O  0.78180059  0.24436115  0.33052282    -0.93700
O225        O  0.75745575  0.29735404  0.33969335    -0.89400
O226        O  0.71417674  0.31729449  0.33434092    -0.82500
C227        C  0.73587536  0.31040139  0.34899089     1.12600
O228        O  0.78807098  0.34148813  0.19760779    -0.95600
Zr229      Zr  0.75369289  0.33387462  0.23473493     1.88900
O230        O  0.70157521  0.36081182  0.28897804    -0.72300
O231        O  0.80823297  0.31062172  0.30856194    -0.51500
O232        O  0.79601449  0.35570514  0.25393680    -0.96200
O233        O  0.73737878  0.36457794  0.19708733    -0.53400
O234        O  0.73570880  0.37450689  0.25846107    -0.72800
C235        C  0.71695537  0.37933164  0.27701872     0.99600
O236        O  0.66103862  0.30326446  0.32155354    -0.61600
O237        O  0.65214081  0.25466873  0.19656277    -0.56400
O238        O  0.65090667  0.32215102  0.26985480    -0.93100
O239        O  0.64530870  0.30497410  0.22577142    -0.91500
O240        O  0.66654767  0.20842109  0.24865022    -0.91900
O241        O  0.66941276  0.22205529  0.30365082    -0.90700
C242        C  0.63622906  0.31731345  0.24771981     1.18400
H243        H  0.70908343  0.22858612  0.21050150     0.34300
H244        H  0.71772802  0.26352970  0.31859076     0.45200
H245        H  0.69356007  0.34021102  0.23405677     0.38700
H246        H  0.79897583  0.29588134  0.24332343     0.35200
H247        H  0.71393393  0.18245340  0.30548867     0.27000
H248        H  0.81985409  0.29991494  0.32216351     0.32900
H249        H  0.79239127  0.37586229  0.25258464     0.38800
H250        H  0.66859631  0.18845281  0.25310761     0.33300
H251        H  0.64546459  0.26245760  0.17841120     0.32200
H252        H  0.66214876  0.31254877  0.16565097     0.33900
H253        H  0.72110016  0.37468094  0.20483378     0.32800
H254        H  0.66197135  0.24070964  0.30772840     0.36800
H255        H  0.64642735  0.29180077  0.31221523     0.29500
H256        H  0.80828541  0.23819061  0.18181898     0.33800
H257        H  0.79286932  0.36146188  0.19817775     0.36600
H258        H  0.66138889  0.23705748  0.19157716     0.29200
H259        H  0.66925008  0.29050549  0.33578775     0.42100
H260        H  0.78771869  0.22765737  0.32024827     0.32200
H261        H  0.74217541  0.19919485  0.30826057     0.39800
H262        H  0.72894704  0.35202630  0.18299093     0.31600
H263        H  0.82037734  0.31282281  0.29187502     0.31700
H264        H  0.81342321  0.26957608  0.18890307     0.32000
Zr265      Zr  0.69743902  0.74698832  0.28043947     2.17500
O266        O  0.65924591  0.71394433  0.27211680    -0.50400
O267        O  0.69766204  0.74489451  0.33154797    -0.73600
O268        O  0.71315197  0.69966313  0.28768068    -0.80400
O269        O  0.64543178  0.80713795  0.27363875    -0.82100
O270        O  0.75767669  0.69531423  0.27049378    -0.77700
O271        O  0.64951958  0.76230747  0.28853809    -0.89400
O272        O  0.73098822  0.77517373  0.34729551    -0.75300
O273        O  0.74593549  0.75119766  0.29326710    -0.84800
O274        O  0.70358094  0.79374496  0.29466233    -0.84500
O275        O  0.72351571  0.73514644  0.23922159    -0.71300
O276        O  0.68421745  0.77485448  0.24049852    -0.83400
Zr277      Zr  0.76622190  0.81550689  0.22686649     2.26400
Zr278      Zr  0.77231286  0.74055786  0.25207293     2.06300
Zr279      Zr  0.69116721  0.82177496  0.25487474     2.10000
Zr280      Zr  0.75205468  0.79800257  0.30710652     1.78800
O281        O  0.65583306  0.83625115  0.22042941    -0.92200
O282        O  0.79226460  0.77889444  0.33279083    -0.40000
O283        O  0.73982017  0.82697996  0.26786232    -0.76700
O284        O  0.77952866  0.78747474  0.26668418    -0.95300
O285        O  0.76006633  0.76883397  0.21247272    -0.88700
O286        O  0.71772119  0.81107618  0.21392361    -0.91500
C287        C  0.71157968  0.75704107  0.35113273     1.02300
C288        C  0.63550120  0.78469512  0.28455763     1.15200
C289        C  0.73534270  0.68562977  0.28226609     1.06000
O290        O  0.80967962  0.72561427  0.28410467    -0.93700
O291        O  0.81773019  0.75455769  0.23201559    -0.89400
O292        O  0.81354686  0.79928086  0.21676573    -0.82500
C293        C  0.82751611  0.77681568  0.22054783     1.12600
O294        O  0.67416620  0.73086710  0.19034965    -0.95600
Zr295      Zr  0.71168534  0.76424738  0.19998369     1.88900
O296        O  0.76707374  0.81687935  0.17590705    -0.72300
O297        O  0.78403312  0.70694119  0.21622829    -0.51500
O298        O  0.72895745  0.72471143  0.17385680    -0.96200
O299        O  0.67469904  0.78468121  0.17062588    -0.53400
O300        O  0.73621359  0.78415386  0.16020413    -0.72800
C301        C  0.75492511  0.80298741  0.15641236     0.99600
O302        O  0.80253966  0.85016995  0.23713456    -0.61600
O303        O  0.67783915  0.85684937  0.28869261    -0.56400
O304        O  0.75049334  0.86288441  0.21972691    -0.93100
O305        O  0.70697773  0.86752923  0.23921390    -0.91500
O306        O  0.73398744  0.83468684  0.33666941    -0.91900
O307        O  0.78743062  0.83348557  0.31668260    -0.90700
C308        C  0.72898067  0.87718742  0.22684537     1.18400
H309        H  0.69169765  0.79800542  0.31040799     0.34300
H310        H  0.79919220  0.79049150  0.27128477     0.45200
H311        H  0.71293605  0.82362414  0.19872402     0.38700
H312        H  0.71962141  0.71619219  0.23410833     0.35200
H313        H  0.79175394  0.78794263  0.35133005     0.27000
H314        H  0.79659228  0.69347792  0.22587655     0.32900
H315        H  0.72426030  0.72893335  0.15399851     0.38800
H316        H  0.74266964  0.83122579  0.35533782     0.33300
H317        H  0.65906589  0.86339845  0.28226118     0.32200
H318        H  0.64509132  0.85101712  0.22982814     0.33900
H319        H  0.68360690  0.80069137  0.16099338     0.32800
H320        H  0.78482182  0.84740980  0.30151018     0.36800
H321        H  0.79370175  0.86328167  0.25024903     0.29500
H322        H  0.65820704  0.70234135  0.28932546     0.33800
H323        H  0.67185828  0.73073617  0.16968575     0.36600
H324        H  0.67403888  0.84650948  0.30630265     0.29200
H325        H  0.81672839  0.84046017  0.24896278     0.42100
H326        H  0.80006846  0.72214769  0.30217230     0.32200
H327        H  0.78696212  0.75939956  0.33675541     0.39800
H328        H  0.66147254  0.79306464  0.18405203     0.31600
H329        H  0.76630671  0.69654917  0.21277187     0.31700
H330        H  0.66628120  0.70141873  0.25742279     0.32000
C331        C  0.20161293  0.21331806  0.02879602     0.81200
N332        N  0.21368693  0.22013108  0.00384810    -0.77100
C333        C  0.20110935  0.21244591  0.97934495     0.83600
N334        N  0.17636949  0.19805025  0.97988736    -0.77100
C335        C  0.16428048  0.19125246  0.00479980     0.83700
N336        N  0.17695740  0.19888059  0.02917374    -0.78800
Zr337      Zr  0.20186123  0.24889491  0.78642079     2.17500
O338        O  0.16746199  0.25154469  0.82410758    -0.50400
O339        O  0.20459215  0.19893409  0.78456743    -0.73600
O340        O  0.15424397  0.23868070  0.77065881    -0.80400
O341        O  0.26047795  0.26076752  0.84010830    -0.82100
O342        O  0.14770465  0.25676413  0.72680771    -0.77700
O343        O  0.21721061  0.24072439  0.83429849    -0.89400
O344        O  0.23561160  0.18719876  0.75051363    -0.75300
O345        O  0.20706202  0.23851482  0.73801921    -0.84800
O346        O  0.25062992  0.23892580  0.78059342    -0.84500
O347        O  0.18578901  0.28949150  0.76179054    -0.71300
O348        O  0.22654531  0.28962973  0.80127217    -0.83400
Zr349      Zr  0.26549575  0.30998576  0.72035806     2.26400
Zr350      Zr  0.19193378  0.27924184  0.71307700     2.06300
Zr351      Zr  0.27543248  0.27979317  0.79449819     2.10000
Zr352      Zr  0.25600770  0.22935988  0.73209005     1.78800
O353        O  0.28912472  0.31331458  0.82998903    -0.92200
O354        O  0.24135427  0.20480854  0.68997476    -0.40000
O355        O  0.28150279  0.26985833  0.74578174    -0.76700
O356        O  0.24083921  0.26908194  0.70579782    -0.95300
O357        O  0.21688928  0.32016816  0.72672172    -0.88700
O358        O  0.26061005  0.32013636  0.76892960    -0.91500
C359        C  0.21789188  0.18134215  0.76977027     1.02300
C360        C  0.23873824  0.24742096  0.84922896     1.15200
C361        C  0.13917141  0.24368304  0.74879333     1.06000
O362        O  0.17818895  0.24835179  0.67525891    -0.93700
O363        O  0.20462403  0.30012828  0.66786123    -0.89400
O364        O  0.24779184  0.32042766  0.67341781    -0.82500
C365        C  0.22594322  0.31403632  0.65874163     1.12600
O366        O  0.17583417  0.33394959  0.81122235    -0.95600
Zr367      Zr  0.21192250  0.32977399  0.77531259     1.88900
O368        O  0.26362509  0.36004274  0.72235997    -0.72300
O369        O  0.15481271  0.31254706  0.70224159    -0.51500
O370        O  0.17104332  0.35580370  0.75856858    -0.96200
O371        O  0.22989377  0.35546258  0.81555224    -0.53400
O372        O  0.23110230  0.37176778  0.75505770    -0.72800
C373        C  0.24953813  0.37764725  0.73645383     0.99600
O374        O  0.30082079  0.30490097  0.68358980    -0.61600
O375        O  0.31241277  0.24710039  0.80772873    -0.56400
O376        O  0.31338189  0.31928211  0.73566453    -0.93100
O377        O  0.32041677  0.29937973  0.77873921    -0.91500
O378        O  0.29527503  0.20193997  0.75030814    -0.91900
O379        O  0.29456475  0.22534946  0.69888166    -0.90700
C380        C  0.32885364  0.31274506  0.75685243     1.18400
H381        H  0.25631947  0.22326769  0.79204344     0.34300
H382        H  0.24425809  0.26562430  0.68619629     0.45200
H383        H  0.27219316  0.33580549  0.77413508     0.38700
H384        H  0.16610920  0.29273386  0.76571283     0.35200
H385        H  0.25118849  0.18676675  0.69122455     0.27000
H386        H  0.14107771  0.30219920  0.69055045     0.32900
H387        H  0.17443902  0.37504636  0.76480321     0.38800
H388        H  0.29225753  0.18318323  0.74257681     0.33300
H389        H  0.32195103  0.25561953  0.82408185     0.32200
H390        H  0.30604234  0.30521975  0.83918167     0.33900
H391        H  0.24773217  0.36414287  0.80920587     0.32800
H392        H  0.30631549  0.24206404  0.70194664     0.36800
H393        H  0.31583640  0.29302246  0.69175118     0.29500
H394        H  0.15706852  0.23370615  0.82397347     0.33800
H395        H  0.17425890  0.35401679  0.81500678     0.36600
H396        H  0.30240150  0.23079978  0.81562420     0.29200
H397        H  0.29192373  0.29288048  0.66928794     0.42100
H398        H  0.17751768  0.22971458  0.68407986     0.32200
H399        H  0.22123921  0.20017353  0.69308315     0.39800
H400        H  0.23591040  0.34102016  0.82920062     0.31600
H401        H  0.14499545  0.31537385  0.72024001     0.31700
H402        H  0.15353738  0.26560094  0.81783932     0.32000
Zr403      Zr  0.20062514  0.81048286  0.78959171     2.17500
O404        O  0.16271937  0.80869205  0.82394795    -0.50400
O405        O  0.20403828  0.86051592  0.78819358    -0.73600
O406        O  0.21707701  0.81936967  0.83694355    -0.80400
O407        O  0.14637147  0.79909843  0.73100852    -0.82100
O408        O  0.26159457  0.80244239  0.84232128    -0.77700
O409        O  0.15225666  0.81744677  0.77453788    -0.89400
O410        O  0.23848335  0.87336575  0.75766093    -0.75300
O411        O  0.24921978  0.82131205  0.78390232    -0.84800
O412        O  0.20613169  0.82205560  0.74126785    -0.84500
O413        O  0.22515253  0.76959812  0.80489690    -0.71300
O414        O  0.18572016  0.77025150  0.76443326    -0.83400
Zr415      Zr  0.26606172  0.75157769  0.72454549     2.26400
Zr416      Zr  0.27412021  0.78050999  0.79822423     2.06300
Zr417      Zr  0.19213665  0.78167820  0.71593419     2.10000
Zr418      Zr  0.25499787  0.83192386  0.73545566     1.78800
O419        O  0.15558083  0.74935719  0.70088743    -0.92200
O420        O  0.29770935  0.85624756  0.75009517    -0.40000
O421        O  0.24106688  0.79210701  0.70937405    -0.76700
O422        O  0.28119925  0.79185674  0.74963169    -0.95300
O423        O  0.26027958  0.74016174  0.77278471    -0.88700
O424        O  0.21728621  0.74092270  0.72994571    -0.91500
C425        C  0.21953855  0.87854703  0.77577879     1.02300
C426        C  0.13725567  0.81129454  0.75298618     1.15200
C427        C  0.23955080  0.81482759  0.85133763     1.06000
O428        O  0.31200511  0.81209837  0.81160413    -0.93700
O429        O  0.31873779  0.75902344  0.78561938    -0.89400
O430        O  0.31299500  0.74096548  0.74192500    -0.82500
C431        C  0.32758584  0.74597070  0.76405802     1.12600
O432        O  0.17364312  0.72337847  0.81202685    -0.95600
Zr433      Zr  0.21156712  0.72981885  0.77826285     1.88900
O434        O  0.26397651  0.70146500  0.72578355    -0.72300
O435        O  0.28435794  0.74682327  0.83526718    -0.51500
O436        O  0.22946812  0.70487181  0.81935133    -0.96200
O437        O  0.17192661  0.70275316  0.76027468    -0.53400
O438        O  0.23263060  0.68841668  0.75939342    -0.72800
C439        C  0.25065091  0.68325525  0.74029412     0.99600
O440        O  0.30231577  0.75734366  0.68866253    -0.61600
O441        O  0.18017349  0.81607940  0.68001982    -0.56400
O442        O  0.25003138  0.74278220  0.67717483    -0.93100
O443        O  0.20704761  0.76311132  0.67096519    -0.91500
O444        O  0.23471759  0.85908121  0.69699819    -0.91900
O445        O  0.28840146  0.83847789  0.69737373    -0.90700
C446        C  0.22860558  0.74974201  0.66218396     1.18400
H447        H  0.19463025  0.83777770  0.73597545     0.34300
H448        H  0.30094970  0.79544956  0.74618539     0.45200
H449        H  0.21174582  0.72552057  0.71832078     0.38700
H450        H  0.22139391  0.76582620  0.82445221     0.35200
H451        H  0.29584012  0.87509123  0.74191520     0.27000
H452        H  0.29831907  0.75617169  0.84754881     0.32900
H453        H  0.22467674  0.68519693  0.81596474     0.38800
H454        H  0.24287562  0.87785801  0.69918840     0.33300
H455        H  0.16683942  0.80646093  0.66728225     0.32200
H456        H  0.14525842  0.75928626  0.68572718     0.33900
H457        H  0.17930348  0.69273979  0.74387752     0.32800
H458        H  0.29860769  0.82066437  0.69635137     0.36800
H459        H  0.29422540  0.77031092  0.67454851     0.29500
H460        H  0.16361025  0.82649736  0.83407219     0.33800
H461        H  0.17297765  0.70323472  0.81611763     0.36600
H462        H  0.16847740  0.82998673  0.68961924     0.29200
H463        H  0.31756734  0.76833862  0.69755827     0.42100
H464        H  0.32173163  0.81666650  0.79383702     0.32200
H465        H  0.29545668  0.85889725  0.77052442     0.39800
H466        H  0.15889265  0.71669304  0.75209275     0.31600
H467        H  0.26694114  0.74581556  0.84658670     0.31700
H468        H  0.16847824  0.79444961  0.83793064     0.32000
Zr469      Zr  0.76671624  0.24957424  0.78504123     2.17500
O470        O  0.80493718  0.25061373  0.81970610    -0.50400
O471        O  0.76521994  0.19923047  0.78303748    -0.73600
O472        O  0.75062257  0.24123030  0.83273185    -0.80400
O473        O  0.82039458  0.26293653  0.72680600    -0.82100
O474        O  0.70641298  0.25872565  0.83779797    -0.77700
O475        O  0.81534335  0.24445716  0.77067559    -0.89400
O476        O  0.73176228  0.18646112  0.75116372    -0.75300
O477        O  0.71805229  0.23835914  0.77946516    -0.84800
O478        O  0.76058236  0.23870607  0.73671527    -0.84500
O479        O  0.74184951  0.29027916  0.79940904    -0.71300
O480        O  0.78106352  0.29021637  0.75934094    -0.83400
Zr481      Zr  0.69972006  0.30908506  0.71895443     2.26400
Zr482      Zr  0.69286523  0.27910431  0.79266071     2.06300
Zr483      Zr  0.77390254  0.27944203  0.71093051     2.10000
Zr484      Zr  0.71174802  0.22826272  0.73107361     1.78800
O485        O  0.80945884  0.31244952  0.69501486    -0.92200
O486        O  0.67103352  0.20286465  0.74895078    -0.40000
O487        O  0.72487194  0.26864351  0.70458962    -0.76700
O488        O  0.68536354  0.26818649  0.74419576    -0.95300
O489        O  0.70640049  0.31977997  0.76711391    -0.88700
O490        O  0.74855580  0.31993490  0.72433227    -0.91500
C491        C  0.75095436  0.18107816  0.76942527     1.02300
C492        C  0.83005983  0.25094844  0.74912859     1.15200
C493        C  0.72858075  0.24639864  0.84717911     1.06000
O494        O  0.65506688  0.24763982  0.80659944    -0.93700
O495        O  0.64741239  0.29889989  0.77902390    -0.89400
O496        O  0.65250345  0.31840467  0.73563049    -0.82500
C497        C  0.63805953  0.31221732  0.75744110     1.12600
O498        O  0.79246943  0.33391417  0.80800539    -0.95600
Zr499      Zr  0.75516940  0.33039668  0.77259601     1.88900
O500        O  0.69985281  0.35942206  0.72180019    -0.72300
O501        O  0.68128041  0.31348083  0.82772473    -0.51500
O502        O  0.73866888  0.35592439  0.81308101    -0.96200
O503        O  0.79474990  0.35802204  0.75528299    -0.53400
O504        O  0.73310043  0.37204031  0.75401858    -0.72800
C505        C  0.71351581  0.37749990  0.73613828     0.99600
O506        O  0.66358043  0.30343968  0.68242037    -0.61600
O507        O  0.78550658  0.24494982  0.67588613    -0.56400
O508        O  0.71535918  0.31875346  0.67161184    -0.93100
O509        O  0.75844034  0.29881485  0.66572627    -0.91500
O510        O  0.72869563  0.20285966  0.69068604    -0.91900
O511        O  0.67534337  0.22054738  0.69558719    -0.90700
C512        C  0.73670979  0.31223827  0.65675091     1.18400
H513        H  0.77220089  0.22322342  0.73145912     0.34300
H514        H  0.66563399  0.26433146  0.74067625     0.45200
H515        H  0.75367426  0.33553009  0.71256113     0.38700
H516        H  0.74572850  0.29407319  0.81891848     0.35200
H517        H  0.67320502  0.18384492  0.74170378     0.27000
H518        H  0.66763937  0.30399998  0.84022411     0.32900
H519        H  0.74602313  0.37498217  0.81035024     0.38800
H520        H  0.72337477  0.18332498  0.69444957     0.33300
H521        H  0.79780594  0.25486591  0.66239089     0.32200
H522        H  0.81725136  0.30419159  0.67780675     0.33900
H523        H  0.79168554  0.37676850  0.76291455     0.32800
H524        H  0.66679213  0.23899340  0.69233718     0.36800
H525        H  0.67156364  0.29009298  0.66900296     0.29500
H526        H  0.80385450  0.23278036  0.83010024     0.33800
H527        H  0.79555312  0.35396758  0.81100549     0.36600
H528        H  0.79824035  0.23170229  0.68560129     0.29200
H529        H  0.64798708  0.29287890  0.69123960     0.42100
H530        H  0.66463076  0.23002636  0.81149457     0.32200
H531        H  0.67460730  0.20098144  0.76936261     0.39800
H532        H  0.79141119  0.36021127  0.73486703     0.31600
H533        H  0.69863273  0.31543403  0.83926028     0.31700
H534        H  0.79958082  0.26490208  0.83343185     0.32000
Zr535      Zr  0.75821798  0.81267027  0.78998762     2.17500
O536        O  0.75152756  0.84888138  0.82466428    -0.50400
O537        O  0.80956835  0.81400010  0.79021917    -0.73600
O538        O  0.76674703  0.79614917  0.83741198    -0.80400
O539        O  0.74629200  0.86577559  0.73136343    -0.82100
O540        O  0.75094935  0.75167956  0.84156493    -0.77700
O541        O  0.76396379  0.86056511  0.77570293    -0.89400
O542        O  0.82512069  0.78299234  0.75824643    -0.75300
O543        O  0.77209249  0.76576635  0.78417028    -0.84800
O544        O  0.77115747  0.80873877  0.74208061    -0.84500
O545        O  0.71770874  0.78548426  0.80295031    -0.71300
O546        O  0.71694035  0.82539384  0.76343527    -0.83400
Zr547      Zr  0.70304018  0.74585813  0.72149479     2.26400
Zr548      Zr  0.73160180  0.73834947  0.79598393     2.06300
Zr549      Zr  0.72992518  0.82041706  0.71536215     2.10000
Zr550      Zr  0.78430606  0.76174511  0.73611588     1.78800
O551        O  0.69535994  0.85468707  0.70003704    -0.92200
O552        O  0.81285944  0.72296840  0.75273712    -0.40000
O553        O  0.74340262  0.77319609  0.70862148    -0.76700
O554        O  0.74456197  0.73324905  0.74781096    -0.95300
O555        O  0.69029703  0.75010283  0.76940460    -0.88700
O556        O  0.68952565  0.79294003  0.72723834    -0.91500
C557        C  0.82914229  0.80146396  0.77697123     1.02300
C558        C  0.75791907  0.87509980  0.75385528     1.15200
C559        C  0.76231554  0.77379435  0.85139982     1.06000
O560        O  0.76613606  0.70358857  0.81009981    -0.93700
O561        O  0.71345616  0.69331555  0.78107630    -0.89400
O562        O  0.69445246  0.69863725  0.73728659    -0.82500
C563        C  0.70075559  0.68412286  0.75910692     1.12600
O564        O  0.66987870  0.83003286  0.81298069    -0.95600
Zr565      Zr  0.67705675  0.79712322  0.77523055     1.88900
O566        O  0.65173758  0.74436427  0.72163587    -0.72300
O567        O  0.69694033  0.72369120  0.83060622    -0.51500
O568        O  0.64951853  0.77649880  0.81307159    -0.96200
O569        O  0.64899091  0.83640624  0.75886326    -0.53400
O570        O  0.63627587  0.77573817  0.75331855    -0.72800
C571        C  0.63223613  0.75701275  0.73487259     0.99600
O572        O  0.71162097  0.71057598  0.68605045    -0.61600
O573        O  0.76466076  0.83491754  0.68068247    -0.56400
O574        O  0.69459090  0.76237947  0.67399243    -0.93100
O575        O  0.71259468  0.80603995  0.66942298    -0.91500
O576        O  0.80999797  0.78208855  0.69690314    -0.91900
O577        O  0.79383782  0.72773092  0.70003358    -0.90700
C578        C  0.70059278  0.78420714  0.65968845     1.18400
H579        H  0.78657914  0.82108877  0.73752137     0.34300
H580        H  0.74949386  0.71424139  0.74410845     0.45200
H581        H  0.67380416  0.79761371  0.71508299     0.38700
H582        H  0.71313350  0.78845167  0.82239521     0.35200
H583        H  0.83196316  0.72667724  0.74525547     0.27000
H584        H  0.70726334  0.71064837  0.84309954     0.32900
H585        H  0.63005003  0.78336139  0.80999549     0.38800
H586        H  0.82995640  0.77697141  0.70036517     0.33300
H587        H  0.75573037  0.85067528  0.67060808     0.32200
H588        H  0.70471017  0.86497146  0.68459982     0.33900
H589        H  0.62914511  0.83084995  0.76219794     0.32800
H590        H  0.77821146  0.72999202  0.68629039     0.36800
H591        H  0.72290155  0.71978837  0.67123531     0.29500
H592        H  0.76909814  0.84931112  0.83605508     0.33800
H593        H  0.64918293  0.83230177  0.81451714     0.36600
H594        H  0.78027425  0.84341714  0.69155834     0.29200
H595        H  0.72518510  0.69749105  0.69483682     0.42100
H596        H  0.77253094  0.69540126  0.79229341     0.32200
H597        H  0.81482661  0.72581821  0.77319943     0.39800
H598        H  0.65085591  0.83654214  0.73820183     0.31600
H599        H  0.69374557  0.74023489  0.84225983     0.31700
H600        H  0.73681148  0.84170460  0.83749756     0.32000
C601        C  0.50104310  0.71154983  0.71283977     0.81200
N602        N  0.49888181  0.69235374  0.69241230    -0.77100
C603        C  0.47372998  0.68007237  0.68692034     0.83600
N604        N  0.45059514  0.68698489  0.70186831    -0.77100
C605        C  0.45274676  0.70613817  0.72245941     0.83700
N606        N  0.47797236  0.71852494  0.72790020    -0.78800
C607        C  0.28349993  0.50687300  0.70442884     0.81200
N608        N  0.30296535  0.50621564  0.68383796    -0.77100
C609        C  0.31312491  0.53011889  0.67283528     0.83600
N610        N  0.30385191  0.55477255  0.68238387    -0.77100
C611        C  0.28435635  0.55541331  0.70304856     0.83700
N612        N  0.27409997  0.53145377  0.71412488    -0.78800
C613        C  0.50851696  0.34693483  0.71918890     0.81200
N614        N  0.50900802  0.36069872  0.69420770    -0.77100
C615        C  0.48446340  0.36738097  0.68093975     0.83600
N616        N  0.45941554  0.36036887  0.69274751    -0.77100
C617        C  0.45887859  0.34659706  0.71771739     0.83700
N618        N  0.48344698  0.33985836  0.73092905    -0.78800
C619        C  0.67308075  0.50838066  0.71435310     0.81200
N620        N  0.65555336  0.50998820  0.69180577    -0.77100
C621        C  0.64464696  0.53466555  0.68356965     0.83600
N622        N  0.65129809  0.55795212  0.69794040    -0.77100
C623        C  0.66887502  0.55650177  0.72058164     0.83700
N624        N  0.67983374  0.53166828  0.72881964    -0.78800
C625        C  0.50648352  0.35929579  0.27852685     0.81200
N626        N  0.50663513  0.37552660  0.30165218    -0.77100
C627        C  0.48194442  0.38382653  0.31308496     0.83600
N628        N  0.45703903  0.37580284  0.30139701    -0.77100
C629        C  0.45673847  0.35957844  0.27827598     0.83700
N630        N  0.48149664  0.35122897  0.26688031    -0.78800
C631        C  0.69285552  0.50961347  0.31708836     0.81200
N632        N  0.67055747  0.51141198  0.33463910    -0.77100
C633        C  0.66236150  0.53637000  0.34439520     0.83600
N634        N  0.67645015  0.55965356  0.33657457    -0.77100
C635        C  0.69880613  0.55801101  0.31903456     0.83700
N636        N  0.70701733  0.53295602  0.30918620    -0.78800
C637        C  0.50708088  0.75517203  0.33238785     0.81200
N638        N  0.48213170  0.76739553  0.32546443    -0.77100
C639        C  0.45745366  0.75635429  0.33481969     0.83600
N640        N  0.45776837  0.73294953  0.35086409    -0.77100
C641        C  0.48263955  0.72068704  0.35780549     0.83700
N642        N  0.50728157  0.73178712  0.34850347    -0.78800
C643        C  0.27605315  0.51069296  0.30746068     0.81200
N644        N  0.26235558  0.53410271  0.29927577    -0.77100
C645        C  0.27081893  0.55900123  0.30942737     0.83600
N646        N  0.29295383  0.56044557  0.32765828    -0.77100
C647        C  0.30660739  0.53700692  0.33576214     0.83700
N648        N  0.29810248  0.51217532  0.32568635    -0.78800
C649        C  0.67249893  0.73449355  0.48372080     0.81200
N650        N  0.67982465  0.74976559  0.50649001    -0.77100
C651        C  0.66902674  0.74311837  0.53205794     0.83600
N652        N  0.65111559  0.72123956  0.53478575    -0.77100
C653        C  0.64388303  0.70608238  0.51202146     0.83700
N654        N  0.65455162  0.71275037  0.48656766    -0.78800
C655        C  0.69957250  0.34716208  0.47749924     0.81200
N656        N  0.67670964  0.36405731  0.47672915    -0.77100
C657        C  0.66533104  0.37324519  0.50095341     0.83600
N658        N  0.67688010  0.36557563  0.52598732    -0.77100
C659        C  0.69975635  0.34869988  0.52682853     0.83700
N660        N  0.71108783  0.33947687  0.50256674    -0.78800
C661        C  0.27403973  0.71642098  0.48634798     0.81200
N662        N  0.29534913  0.69783191  0.48844124    -0.77100
C663        C  0.30274241  0.68705778  0.51379016     0.83600
N664        N  0.28881777  0.69486171  0.53714228    -0.77100
C665        C  0.26743773  0.71343815  0.53512036     0.83700
N666        N  0.26005645  0.72430349  0.50971120    -0.78800
C667        C  0.26113404  0.35082015  0.47933719     0.81200
N668        N  0.28551766  0.36572267  0.47940710    -0.77100
C669        C  0.29766016  0.37346567  0.50401757     0.83600
N670        N  0.28532656  0.36625311  0.52869233    -0.77100
C671        C  0.26089331  0.35134985  0.52877517     0.83700
N672        N  0.24885534  0.34356394  0.50405431    -0.78800
O673        O  0.90388128  0.98598734  0.00112335    -0.85500
O674        O  0.06375667  0.99276396  0.00423244    -0.85700
O675        O  0.98631670  0.95942502  0.95485217    -0.87400
O676        O  0.98534035  0.95206938  0.04568593    -0.86100
O677        O  0.98298489  0.98273379  0.08219148    -0.85700
O678        O  0.98465829  0.99562801  0.92321027    -0.87100
O679        O  0.03104272  0.95760668  0.00130063    -0.85600
O680        O  0.93972035  0.95410475  0.99860400    -0.85200
Zr681      Zr  0.98440344  0.97861267  0.00202335     2.84300
O682        O  0.01154798  0.00529115  0.03285016    -1.07100
O683        O  0.95473848  0.00739408  0.97541565    -1.07900
C684        C  0.91350675  0.96112361  0.99880242     1.07600
C685        C  0.05653010  0.96706395  0.00223539     1.07500
C686        C  0.98614432  0.96966448  0.92972724     1.10500
C687        C  0.98439525  0.95808093  0.07196307     1.08300
H688        H  0.02415828  0.99949611  0.96382276     0.33800
O689        O  0.01186497  0.00966415  0.97603432    -1.28100
H690        H  0.94288287  0.98997200  0.04250009     0.33500
O691        O  0.95429520  0.00286655  0.03186222    -1.29800
O692        O  0.06065544  0.08223586  0.00836782    -0.85500
O693        O  0.89975238  0.07601250  0.00715580    -0.87000
O694        O  0.02800544  0.04133425  0.92715924    -0.85600
O695        O  0.02776406  0.02841355  0.08570116    -0.85700
O696        O  0.93540250  0.02708248  0.08490868    -0.85400
O697        O  0.93674753  0.03604596  0.92561776    -0.85200
O698        O  0.98033952  0.11654326  0.96511018    -0.85600
O699        O  0.97965610  0.10923127  0.05739326    -0.85000
O700        O  0.98164381  0.08494433  0.92934152    -0.86100
O701        O  0.98046910  0.07272412  0.08881912    -0.85200
O702        O  0.06213036  0.03983249  0.96170165    -0.85600
O703        O  0.90217568  0.03192738  0.95898448    -0.85400
O704        O  0.90141525  0.02835194  0.05021185    -0.85000
O705        O  0.06208015  0.03335613  0.05215530    -0.85400
O706        O  0.02547943  0.11484875  0.01039769    -0.85700
O707        O  0.93250723  0.11117164  0.01052314    -0.87100
Zr708      Zr  0.03868929  0.03665719  0.00675767     2.83100
Zr709      Zr  0.92501577  0.03205586  0.00504063     2.83500
Zr710      Zr  0.98219373  0.03857070  0.94959485     2.84100
Zr711      Zr  0.98161399  0.02976266  0.06245539     2.83400
Zr712      Zr  0.97980690  0.09056312  0.00968421     2.84200
O713        O  0.95235508  0.05899488  0.03561135    -1.07600
O714        O  0.00941575  0.06570101  0.97998773    -1.07100
C715        C  0.05166482  0.10737866  0.00947434     1.07500
C716        C  0.90691441  0.10177002  0.00914573     1.10200
C717        C  0.05380893  0.04100045  0.93592023     1.07700
C718        C  0.05368033  0.03011656  0.07762611     1.08100
C719        C  0.90953672  0.02695584  0.07609030     1.07700
C720        C  0.91088206  0.03326135  0.93341811     1.07200
C721        C  0.98113391  0.10981761  0.93891266     1.07600
C722        C  0.97997947  0.09877810  0.08249598     1.07100
H723        H  0.94017243  0.07528164  0.96770934     0.33800
O724        O  0.95233237  0.06354632  0.97897583    -1.28700
H725        H  0.02062220  0.07227853  0.04915599     0.33800
O726        O  0.00914349  0.06133081  0.03659380    -1.30100
O727        O  0.47825421  0.60315259  0.55500313    -0.85500
O728        O  0.48386221  0.44626323  0.54386746    -0.85700
O729        O  0.43559185  0.52271675  0.58171615    -0.87400
O730        O  0.52717547  0.52528027  0.58404187    -0.86100
O731        O  0.56197573  0.52910152  0.55089215    -0.85700
O732        O  0.40162587  0.52488297  0.54703477    -0.87100
O733        O  0.48286043  0.47749392  0.57996106    -0.85600
O734        O  0.47872116  0.56656959  0.58624324    -0.85200
Zr735      Zr  0.48168436  0.52394538  0.55978297     2.84300
O736        O  0.51114470  0.49884769  0.53034377    -1.07100
O737        O  0.45272564  0.55320126  0.53303495    -1.07900
C738        C  0.47763320  0.59256370  0.57994208     1.07600
C739        C  0.48359867  0.45271583  0.57013549     1.07500
C740        C  0.40984023  0.52366513  0.57284731     1.10500
C741        C  0.55316347  0.52757013  0.57641817     1.08300
H742        H  0.44221878  0.48498506  0.54009115     0.33800
O743        O  0.45385226  0.49750879  0.52924776    -1.28100
H744        H  0.52079706  0.56632265  0.54736844     0.33500
O745        O  0.50962826  0.55529646  0.53461378    -1.29800
O746        O  0.48304644  0.45393459  0.45186452    -0.85500
O747        O  0.48050114  0.61179706  0.46474180    -0.87000
O748        O  0.40267222  0.48166917  0.50017670    -0.85600
O749        O  0.56325778  0.48601409  0.50308421    -0.85700
O750        O  0.56101292  0.57599594  0.50833219    -0.85400
O751        O  0.40073534  0.57090063  0.50660427    -0.85200
O752        O  0.43722201  0.53464380  0.42279771    -0.85600
O753        O  0.52904734  0.53638437  0.42499600    -0.85000
O754        O  0.40258125  0.53013266  0.45606299    -0.86100
O755        O  0.56274455  0.53428623  0.45995154    -0.85200
O756        O  0.43736105  0.44854082  0.49863352    -0.85600
O757        O  0.43398840  0.60553126  0.51014480    -0.85400
O758        O  0.52578687  0.60854709  0.51037941    -0.85000
O759        O  0.53006469  0.45129530  0.49921233    -0.85400
O760        O  0.48304959  0.49067176  0.42070140    -0.85700
O761        O  0.48248303  0.58136726  0.42801318    -0.87100
Zr762      Zr  0.48323255  0.47251138  0.49951120     2.83100
Zr763      Zr  0.48056815  0.58447883  0.50779396     2.83500
Zr764      Zr  0.42530133  0.52702714  0.50207350     2.84100
Zr765      Zr  0.53895007  0.53032900  0.50489487     2.83400
Zr766      Zr  0.48277890  0.53379392  0.44702591     2.84200
O767        O  0.51036588  0.56001713  0.47796139    -1.07600
O768        O  0.45473951  0.50225838  0.47235254    -1.07100
C769        C  0.48298221  0.46455626  0.42684943     1.07500
C770        C  0.48151410  0.60600804  0.43843384     1.10200
C771        C  0.41127177  0.45636506  0.49934120     1.07700
C772        C  0.55571294  0.46041088  0.50087226     1.08100
C773        C  0.55190644  0.60108353  0.51018444     1.07700
C774        C  0.40836801  0.59638545  0.50950115     1.07200
C775        C  0.41122866  0.53296376  0.43058484     1.07600
C776        C  0.55480334  0.53610331  0.43405694     1.07100
H777        H  0.44100164  0.57073455  0.46565035     0.33800
O778        O  0.45298575  0.55852430  0.47657016    -1.28700
H779        H  0.52351053  0.49367187  0.46172900     0.33800
O780        O  0.51133551  0.50392328  0.47399161    -1.30100
C781        C  0.32369308  0.38909599  0.50381053    -0.17600
C782        C  0.34524515  0.40259905  0.50281448     0.06500
C783        C  0.36978225  0.41947513  0.50115085     0.08400
C784        C  0.38962099  0.43528947  0.49987529    -0.18400
C785        C  0.32549994  0.66766606  0.51575669    -0.17600
C786        C  0.34481075  0.65153205  0.51590066     0.06500
C787        C  0.36734195  0.63265779  0.51446705     0.08400
C788        C  0.38630273  0.61630907  0.51233277    -0.18400
C789        C  0.64121501  0.39124117  0.50011101    -0.17600
C790        C  0.62104791  0.40644454  0.49971206     0.06500
C791        C  0.59761459  0.42448625  0.49972430     0.08400
C792        C  0.57804087  0.44039382  0.50012142    -0.18400
C793        C  0.57262364  0.62270143  0.51233283    -0.17600
C794        C  0.58945849  0.64139966  0.51392096     0.06500
C795        C  0.60867148  0.66375747  0.51496230     0.08400
C796        C  0.62482924  0.68307836  0.51457749    -0.18400
C797        C  0.38995079  0.53468771  0.40904896    -0.17600
C798        C  0.37153706  0.53631042  0.39151056     0.06500
C799        C  0.34933541  0.53784833  0.37162790     0.08400
C800        C  0.32993820  0.53824122  0.35510661    -0.18400
C801        C  0.48275892  0.69554932  0.37435263    -0.17600
C802        C  0.48246451  0.67439510  0.38812557     0.06500
C803        C  0.48195459  0.64976855  0.40453522     0.08400
C804        C  0.48163352  0.62924688  0.41926303    -0.18400
C805        C  0.63866731  0.53805035  0.36282387    -0.17600
C806        C  0.61881128  0.53861796  0.37843274     0.06500
C807        C  0.59585582  0.53842802  0.39708093     0.08400
C808        C  0.57672271  0.53767113  0.41356127    -0.18400
C809        C  0.48215675  0.40062242  0.33789034    -0.17600
C810        C  0.48233188  0.41455294  0.35881428     0.06500
C811        C  0.48258227  0.43105728  0.38321792     0.08400
C812        C  0.48280508  0.44576631  0.40358434    -0.18400
C813        C  0.62578466  0.53574370  0.65987180    -0.17600
C814        C  0.60976224  0.53457709  0.64013682     0.06500
C815        C  0.59070441  0.53182040  0.61739694     0.08400
C816        C  0.57396061  0.52937477  0.59838905    -0.18400
C817        C  0.48413335  0.43059086  0.59055765    -0.17600
C818        C  0.48455315  0.41393791  0.60962478     0.06500
C819        C  0.48491465  0.39632354  0.63352735     0.08400
C820        C  0.48493169  0.38257276  0.65482547    -0.18400
C821        C  0.38842878  0.52389916  0.59365763    -0.17600
C822        C  0.37082596  0.52521169  0.61154109     0.06500
C823        C  0.35064490  0.52740927  0.63275153     0.08400
C824        C  0.33351121  0.52913390  0.65104007    -0.18400
C825        C  0.47543265  0.61130405  0.60283215    -0.17600
C826        C  0.47353574  0.62658900  0.62248040     0.06500
C827        C  0.47191540  0.64449409  0.64550409     0.08400
C828        C  0.47174627  0.66033812  0.66480449    -0.18400
C829        C  0.69398085  0.78337291  0.63027003    -0.17600
C830        C  0.68871556  0.77871682  0.60597013     0.06500
C831        C  0.68249628  0.76938550  0.57860224     0.08400
C832        C  0.67678029  0.75867487  0.55650495    -0.18400
C833        C  0.69374393  0.65512728  0.75811386    -0.17600
C834        C  0.68825119  0.63108743  0.75377411     0.06500
C835        C  0.68192393  0.60377196  0.74514263     0.08400
C836        C  0.67626399  0.58149938  0.73518353    -0.18400
C837        C  0.60356899  0.74935095  0.72904330    -0.17600
C838        C  0.57938489  0.74242933  0.72541286     0.06500
C839        C  0.55132258  0.73330838  0.72177890     0.08400
C840        C  0.52787194  0.72422156  0.71832139    -0.18400
C841        C  0.71198715  0.34075643  0.55342681    -0.17600
C842        C  0.72132035  0.33430929  0.57620883     0.06500
C843        C  0.73036356  0.32675043  0.60358668     0.08400
C844        C  0.73536593  0.32016068  0.62761382    -0.18400
C845        C  0.60888638  0.32012329  0.75676799    -0.17600
C846        C  0.58468437  0.32648831  0.75216490     0.06500
C847        C  0.55720911  0.33369076  0.74304564     0.08400
C848        C  0.53458040  0.33973012  0.73299712    -0.18400
C849        C  0.68422270  0.48181422  0.72246744    -0.17600
C850        C  0.69194515  0.45834098  0.72671589     0.06500
C851        C  0.69981567  0.43025119  0.72987982     0.08400
C852        C  0.70611684  0.40613735  0.73228755    -0.18400
C853        C  0.22961569  0.74245154  0.63312081    -0.17600
C854        C  0.23431053  0.73622566  0.60918799     0.06500
C855        C  0.24329690  0.72871975  0.58215582     0.08400
C856        C  0.25327366  0.72199689  0.56006983    -0.18400
C857        C  0.42809992  0.71388620  0.73777833    -0.17600
C858        C  0.40647046  0.72066638  0.74889453     0.06500
C859        C  0.37994020  0.72911803  0.75890029     0.08400
C860        C  0.35630857  0.73674655  0.76378434    -0.18400
C861        C  0.25617230  0.65483400  0.73448916    -0.17600
C862        C  0.26112814  0.63118429  0.72872583     0.06500
C863        C  0.26787828  0.60405978  0.72082424     0.08400
C864        C  0.27478525  0.58147011  0.71314314    -0.18400
C865        C  0.22638391  0.32233017  0.62957840    -0.17600
C866        C  0.23073257  0.32898008  0.60543599     0.06500
C867        C  0.23915628  0.33666224  0.57789692     0.08400
C868        C  0.24826575  0.34329241  0.55512520    -0.18400
C869        C  0.25487546  0.40627129  0.73122113    -0.17600
C870        C  0.25941196  0.43043038  0.72719402     0.06500
C871        C  0.26570108  0.45834287  0.72176692     0.08400
C872        C  0.27275756  0.48138062  0.71526075    -0.18400
C873        C  0.43227488  0.33933654  0.73016968    -0.17600
C874        C  0.40950003  0.33346798  0.73978433     0.06500
C875        C  0.38215809  0.32657253  0.74937476     0.08400
C876        C  0.35812073  0.32041263  0.75498227    -0.18400
C877        C  0.07299075  0.12872134  0.00933903    -0.17600
C878        C  0.09260594  0.14479026  0.00841041     0.06500
C879        C  0.11687606  0.16198061  0.00680278     0.08400
C880        C  0.13825662  0.17568449  0.00552828    -0.18400
C881        C  0.21377374  0.21970552  0.95276580    -0.17600
C882        C  0.22326613  0.22580339  0.92999187     0.06500
C883        C  0.23242812  0.23321871  0.90259677     0.08400
C884        C  0.23751585  0.23976224  0.87855910    -0.18400
C885        C  0.68350921  0.74091665  0.45644145    -0.17600
C886        C  0.69108019  0.74421727  0.43254434     0.06500
C887        C  0.69861822  0.74720270  0.40405938     0.08400
C888        C  0.70453809  0.75058792  0.37970153    -0.18400
C889        C  0.60643677  0.78415772  0.29323866    -0.17600
C890        C  0.58265981  0.78062445  0.30163060     0.06500
C891        C  0.55564864  0.77374431  0.31228682     0.08400
C892        C  0.53322192  0.76610569  0.32157476    -0.18400
C893        C  0.71286782  0.58307148  0.31027108    -0.17600
C894        C  0.72222327  0.60542682  0.30346032     0.06500
C895        C  0.73030732  0.63271524  0.29585773     0.08400
C896        C  0.73444956  0.65666991  0.28956462    -0.18400
C897        C  0.73500384  0.31728672  0.37825841    -0.17600
C898        C  0.73008888  0.32331104  0.40225782     0.06500
C899        C  0.72104832  0.33079916  0.42937175     0.08400
C900        C  0.71174723  0.33782618  0.45171053    -0.18400
C901        C  0.71295810  0.40773752  0.28494824    -0.17600
C902        C  0.70982356  0.43166299  0.29140876     0.06500
C903        C  0.70565426  0.45954780  0.29927597     0.08400
C904        C  0.70088427  0.48288804  0.30676192    -0.18400
C905        C  0.60720853  0.32611318  0.24818592    -0.17600
C906        C  0.58320658  0.33361668  0.25188131     0.06500
C907        C  0.55571373  0.34248597  0.25905980     0.08400
C908        C  0.53286476  0.35008741  0.26703096    -0.18400
C909        C  0.26651427  0.72759053  0.45930870    -0.17600
C910        C  0.26135415  0.73581085  0.43587012     0.06500
C911        C  0.25612090  0.74442457  0.40792462     0.08400
C912        C  0.25195845  0.75126025  0.38385453    -0.18400
C913        C  0.25658425  0.58392406  0.30090499    -0.17600
C914        C  0.24631145  0.60597454  0.29471086     0.06500
C915        C  0.23691045  0.63307177  0.28852106     0.08400
C916        C  0.23181037  0.65713912  0.28393742    -0.18400
C917        C  0.43083285  0.76853252  0.32674030    -0.17600
C918        C  0.40772757  0.77677461  0.31975051     0.06500
C919        C  0.37994984  0.78389686  0.31114187     0.08400
C920        C  0.35585677  0.78743564  0.30336554    -0.18400
C921        C  0.13575697  0.02503427  0.15203002    -0.17600
C922        C  0.11640773  0.02515629  0.13549106     0.06500
C923        C  0.09400621  0.02649612  0.11589021     0.08400
C924        C  0.07523090  0.02813018  0.09878433    -0.18400
C925        C  0.23601273  0.90752693  0.22192843    -0.17600
C926        C  0.23117548  0.93153736  0.21658101     0.06500
C927        C  0.22171919  0.95864801  0.21026056     0.08400
C928        C  0.21106580  0.98067353  0.20451102    -0.18400
C929        C  0.24900788  0.34204378  0.45300981    -0.17600
C930        C  0.24063985  0.33477585  0.43018369     0.06500
C931        C  0.23303345  0.32640984  0.40268836     0.08400
C932        C  0.22890493  0.31959297  0.37864655    -0.18400
C933        C  0.35488006  0.32759758  0.24816826    -0.17600
C934        C  0.37903593  0.33508325  0.25164964     0.06500
C935        C  0.40690393  0.34353225  0.25860405     0.08400
C936        C  0.43008891  0.35071257  0.26654325    -0.18400
C937        C  0.26736692  0.48422929  0.29712122    -0.17600
C938        C  0.26154692  0.46110144  0.28981253     0.06500
C939        C  0.25604271  0.43337673  0.28260332     0.08400
C940        C  0.25193515  0.40940282  0.27717152    -0.18400
C941        C  0.23527188  0.24285014  0.12955472    -0.17600
C942        C  0.23103361  0.23637541  0.10541507     0.06500
C943        C  0.22311560  0.22862698  0.07779107     0.08400
C944        C  0.21437719  0.22180931  0.05494153    -0.18400
C945        C  0.19681589  0.08012388  0.21044580    -0.17600
C946        C  0.20169792  0.10350827  0.21772055     0.06500
C947        C  0.20622004  0.13149146  0.22484548     0.08400
C948        C  0.20992427  0.15559140  0.23018494    -0.18400
C949        C  0.98004155  0.11768659  0.10565359    -0.17600
C950        C  0.98028882  0.13248844  0.12594832     0.06500
C951        C  0.98057326  0.14918782  0.15021336     0.08400
C952        C  0.98072565  0.16337213  0.17096073    -0.18400
C953        C  0.92929852  0.21393569  0.24120776    -0.17600
C954        C  0.90611960  0.22091115  0.24887082     0.06500
C955        C  0.87823148  0.22912102  0.25544000     0.08400
C956        C  0.85408461  0.23647765  0.25860519    -0.18400
C957        C  0.10746293  0.23841856  0.25887481    -0.17600
C958        C  0.08322073  0.23104457  0.25583728     0.06500
C959        C  0.05530765  0.22245245  0.24929939     0.08400
C960        C  0.03215806  0.21501847  0.24150969    -0.18400
C961        C  0.75321083  0.98041130  0.20339724    -0.17600
C962        C  0.74341286  0.95808807  0.20968821     0.06500
C963        C  0.73480494  0.93064173  0.21603329     0.08400
C964        C  0.73030967  0.90644816  0.22098797    -0.18400
C965        C  0.76556143  0.08053536  0.20554171    -0.17600
C966        C  0.76034891  0.10393409  0.21246349     0.06500
C967        C  0.75538714  0.13187069  0.21949252     0.08400
C968        C  0.75140604  0.15586654  0.22505569    -0.18400
C969        C  0.82671967  0.02459342  0.14896441    -0.17600
C970        C  0.84613593  0.02393777  0.13275365     0.06500
C971        C  0.86875370  0.02421623  0.11357584     0.08400
C972        C  0.88772044  0.02517810  0.09683011    -0.18400
C973        C  0.03325015  0.79822210  0.18787452    -0.17600
C974        C  0.05636369  0.79027714  0.19518793     0.06500
C975        C  0.08422849  0.78324661  0.20357868     0.08400
C976        C  0.10847890  0.77957555  0.21076463    -0.18400
C977        C  0.93052530  0.79759711  0.18685472    -0.17600
C978        C  0.90778039  0.78899279  0.19445117     0.06500
C979        C  0.88042467  0.78118350  0.20361382     0.08400
C980        C  0.85649726  0.77724764  0.21146852    -0.18400
C981        C  0.98217478  0.87026191  0.13818955    -0.17600
C982        C  0.98295472  0.89107186  0.12395057     0.06500
C983        C  0.98398577  0.91509777  0.10675140     0.08400
C984        C  0.98451332  0.93513251  0.09140595    -0.18400
C985        C  0.21523704  0.90678543  0.78269069    -0.17600
C986        C  0.21061328  0.93031375  0.78885724     0.06500
C987        C  0.20348937  0.95724349  0.79662708     0.08400
C988        C  0.19589824  0.97969229  0.80382580    -0.18400
C989        C  0.21276633  0.15280587  0.77541452    -0.17600
C990        C  0.20839032  0.12895460  0.78104808     0.06500
C991        C  0.20234494  0.10167752  0.78918337     0.08400
C992        C  0.19564682  0.07923871  0.79778310    -0.18400
C993        C  0.13326632  0.03263252  0.86132370    -0.17600
C994        C  0.11484296  0.03513610  0.87820248     0.06500
C995        C  0.09340069  0.03862041  0.89792761     0.08400
C996        C  0.07520381  0.04076559  0.91510759    -0.18400
C997        C  0.85785036  0.80908544  0.78300489    -0.17600
C998        C  0.88205454  0.81601447  0.78678488     0.06500
C999        C  0.91019045  0.82505485  0.79065177     0.08400
C1000       C  0.93375940  0.83385329  0.79441446    -0.18400
C1001       C  0.03467276  0.84009162  0.77814755    -0.17600
C1002       C  0.05672194  0.83284551  0.76810096     0.06500
C1003       C  0.08380254  0.82482181  0.75902049     0.08400
C1004       C  0.10786585  0.81837486  0.75423726    -0.18400
C1005       C  0.99047318  0.89826257  0.84727177    -0.17600
C1006       C  0.99059452  0.91514643  0.86575520     0.06500
C1007       C  0.98946804  0.93435774  0.88788329     0.08400
C1008       C  0.98797558  0.95048754  0.90697705    -0.18400
C1009       C  0.85968970  0.24423625  0.75077592    -0.17600
C1010       C  0.88379751  0.23741722  0.75574116     0.06500
C1011       C  0.91104829  0.22850842  0.76444601     0.08400
C1012       C  0.93353798  0.22060571  0.77364070    -0.18400
C1013       C  0.03593827  0.21445027  0.77345252    -0.17600
C1014       C  0.05884600  0.22012819  0.76395201     0.06500
C1015       C  0.08628481  0.22755845  0.75490761     0.08400
C1016       C  0.11024250  0.23461339  0.74994427    -0.18400
C1017       C  0.98285204  0.17578116  0.85108430    -0.17600
C1018       C  0.98239902  0.16332937  0.87319247     0.06500
C1019       C  0.98190094  0.14729907  0.89822520     0.08400
C1020       C  0.98148608  0.13162123  0.91812809    -0.18400
C1021       C  0.76448929  0.90415198  0.75530043    -0.17600
C1022       C  0.77033604  0.92801422  0.76009118     0.06500
C1023       C  0.77733681  0.95505322  0.76903466     0.08400
C1024       C  0.78359449  0.97722315  0.77884961    -0.18400
C1025       C  0.77737265  0.07712203  0.78888112    -0.17600
C1026       C  0.76981040  0.10040488  0.78358183     0.06500
C1027       C  0.76254981  0.12835592  0.77867939     0.08400
C1028       C  0.75711812  0.15244781  0.77473129    -0.18400
C1029       C  0.89005988  0.03094482  0.91158447    -0.17600
C1030       C  0.87329406  0.02835868  0.89265028     0.06500
C1031       C  0.85411864  0.02560618  0.87006012     0.08400
C1032       C  0.83777314  0.02437606  0.85062234    -0.18400
C1033       C  0.20302176  0.84085101  0.05323128    -0.17600
C1034       C  0.20754442  0.83286341  0.07686226     0.06500
C1035       C  0.21137253  0.82432290  0.10502441     0.08400
C1036       C  0.21428543  0.81723260  0.12918191    -0.18400
C1037       C  0.23925926  0.82389709  0.87993684    -0.17600
C1038       C  0.23504554  0.83148405  0.90357195     0.06500
C1039       C  0.22634316  0.84004080  0.93041158     0.08400
C1040       C  0.21632851  0.84701090  0.95242767    -0.18400
C1041       C  0.07891721  0.94731890  0.00052864    -0.17600
C1042       C  0.09820199  0.93127423  0.99877929     0.06500
C1043       C  0.12122948  0.91299195  0.99711420     0.08400
C1044       C  0.14114470  0.89758351  0.99683275    -0.18400
C1045       C  0.74824940  0.22394773  0.05358041    -0.17600
C1046       C  0.73944411  0.23191353  0.07582971     0.06500
C1047       C  0.73158187  0.24079075  0.10293233     0.08400
C1048       C  0.72758768  0.24781360  0.12685636    -0.18400
C1049       C  0.72956878  0.23843345  0.87632864    -0.17600
C1050       C  0.73370334  0.23215691  0.90060447     0.06500
C1051       C  0.74146580  0.22509728  0.92851073     0.08400
C1052       C  0.74986306  0.21909498  0.95178005    -0.18400
C1053       C  0.82071109  0.17080206  0.00724634    -0.17600
C1054       C  0.84106391  0.15573378  0.00825440     0.06500
C1055       C  0.86459798  0.13761712  0.00912067     0.08400
C1056       C  0.88425745  0.12166676  0.00946880    -0.18400
C1057       C  0.76316143  0.80841882  0.12804959    -0.17600
C1058       C  0.77019028  0.81153405  0.10401083     0.06500
C1059       C  0.77889890  0.81474603  0.07597454     0.08400
C1060       C  0.78699693  0.81834514  0.05234551    -0.18400
C1061       C  0.79197928  0.80030083  0.95258214    -0.17600
C1062       C  0.78508695  0.78916018  0.93104785     0.06500
C1063       C  0.77705286  0.77926513  0.90436524     0.08400
C1064       C  0.77023943  0.77435632  0.88049899    -0.18400
C1065       C  0.89338843  0.93910237  0.99623149    -0.17600
C1066       C  0.87748196  0.91971790  0.99425145     0.06500
C1067       C  0.85939929  0.89654989  0.99283797     0.08400
C1068       C  0.84396606  0.87669702  0.99316996    -0.18400
loop_ 
_geom_bond_atom_site_label_1 
_geom_bond_atom_site_label_2 
_geom_bond_distance 
_geom_bond_site_symmetry_2 
_ccdc_geom_bond_type 
C1            N2   1.354       .  A
C1            N6   1.358       .  A
C1         C1060   1.432       .  S
N2            C3   1.354   1_554  A
C3            N4   1.356       .  A
C3         C1068   1.432       .  S
N4            C5   1.358       .  A
C5            N6   1.359   1_556  A
C5         C1061   1.436       .  S
C7            N8   1.360       .  A
C7           N12   1.359       .  A
C7         C1045   1.442       .  S
N8            C9   1.360   1_554  A
C9           N10   1.359       .  A
C9         C1052   1.440       .  S
N10          C11   1.358   1_556  A
C11          N12   1.358       .  A
C11        C1053   1.443       .  S
C13          N14   1.354       .  A
C13          N18   1.359       .  A
C13        C1033   1.434       .  S
N14          C15   1.354   1_554  A
C15          N16   1.356       .  A
C15        C1044   1.432       .  S
N16          C17   1.358       .  A
C17          N18   1.360   1_556  A
C17        C1040   1.437       .  S
C19          N20   1.354       .  A
C19          N24   1.359       .  A
C19        C1025   1.434       .  S
N20          C21   1.354       .  A
C21          N22   1.357       .  A
C21        C1032   1.434       .  S
N22          C23   1.359       .  A
C23          N24   1.360       .  A
C23        C1024   1.438   1_545  S
C25          N26   1.359       .  A
C25          N30   1.360       .  A
C25        C1012   1.443       .  S
N26          C27   1.358       .  A
C27          N28   1.358   1_655  A
C27        C1017   1.441       .  S
N28          C29   1.359       .  A
C29          N30   1.360   1_455  A
C29        C1013   1.441       .  S
C31          N32   1.359       .  A
C31          N36   1.356       .  A
C31        C1000   1.435       .  S
N32          C33   1.359   1_655  A
C33          N34   1.359       .  A
C33        C1001   1.438       .  S
N34          C35   1.357   1_455  A
C35          N36   1.355       .  A
C35        C1005   1.436       .  S
C37          N38   1.353       .  A
C37          N42   1.353       .  A
C37         C992   1.421       .  S
N38          C39   1.354       .  A
C39          N40   1.356       .  A
C39         C988   1.422   1_545  S
N40          C41   1.354       .  A
C41          N42   1.352       .  A
C41         C993   1.424       .  S
C43          N44   1.360       .  A
C43          N48   1.360       .  A
C43         C977   1.443       .  S
N44          C45   1.358       .  A
C45          N46   1.357   1_655  A
C45         C981   1.439       .  S
N46          C47   1.357       .  A
C47          N48   1.360   1_455  A
C47         C973   1.441       .  S
C49          N50   1.357       .  A
C49          N54   1.360       .  A
C49         C965   1.438       .  S
N50          C51   1.355       .  A
C51          N52   1.356       .  A
C51         C969   1.437       .  S
N52          C53   1.358       .  A
C53          N54   1.360       .  A
C53         C961   1.439   1_545  S
C55          N56   1.361       .  A
C55          N60   1.358       .  A
C55         C953   1.443       .  S
N56          C57   1.361   1_655  A
C57          N58   1.359       .  A
C57         C960   1.442       .  S
N58          C59   1.357   1_455  A
C59          N60   1.357       .  A
C59         C952   1.440       .  S
Zr61         O62   2.440       .  S
Zr61         O63   2.430       .  S
Zr61         O64   2.431       .  S
Zr61         O67   2.426       .  S
Zr61         O69   2.381       .  S
Zr61         O70   2.378       .  S
Zr61         O71   2.403       .  S
Zr61         O72   2.400       .  S
O62         H118   0.990       .  S
O62         H126   0.990       .  S
O63          C83   1.282       .  A
O64          C85   1.282       .  A
O65         Zr75   2.447       .  S
O65          C84   1.286       .  A
O66         Zr74   2.445       .  S
O66          C85   1.285       .  A
O67          C84   1.282       .  A
O68         Zr76   2.417       .  S
O68          C83   1.279       .  A
O69         Zr74   2.400       .  S
O69         Zr76   2.381       .  S
O70         Zr75   2.391       .  S
O70         Zr76   2.374       .  S
O70         H105   0.966       .  S
O71         Zr74   2.400       .  S
O71         Zr91   2.397       .  S
O71         H108   0.966       .  S
O72         Zr75   2.393       .  S
O72         Zr91   2.394       .  S
Zr73         O98   2.445       .  S
Zr73         O92   2.430       .  S
Zr73        O100   2.431       .  S
Zr73         O88   2.432       .  S
Zr73         O79   2.399       .  S
Zr73         O80   2.401       .  S
Zr73         O81   2.380       .  S
Zr73         O82   2.382       .  S
Zr74         O93   2.436       .  S
Zr74         O86   2.434       .  S
Zr74         O87   2.450       .  S
Zr74         O80   2.398       .  S
Zr74         O81   2.390       .  S
Zr75         O77   2.435       .  S
Zr75         O99   2.436       .  S
Zr75        O101   2.442       .  S
Zr75         O79   2.395       .  S
Zr75         O82   2.389       .  S
Zr76        O102   2.436       .  S
Zr76        O103   2.435       .  S
Zr76         O78   2.436       .  S
Zr76         O79   2.393       .  S
Zr76         O80   2.393       .  S
O77         H114   0.990       .  S
O78         H109   0.990       .  S
O78         H123   0.990       .  S
O80         H106   0.966       .  S
O81         Zr91   2.379       .  S
O82         Zr91   2.376       .  S
O82         H107   0.966       .  S
C83         C940   1.431       .  S
C84         C932   1.441       .  S
C85         C933   1.441       .  S
O86         H122   0.990       .  S
O87          C89   1.287       .  A
O88          C89   1.283       .  A
C89         C941   1.443       .  S
O90         Zr91   2.440       .  S
O90         H119   0.990       .  S
Zr91         O94   2.437       .  S
Zr91         O95   2.440       .  S
Zr91         O96   2.427       .  S
O92          C97   1.283       .  A
O93         H110   0.990       .  S
O93         H125   0.990       .  S
O94         H111   0.990       .  S
O95         H115   0.990       .  S
O95         H124   0.990       .  S
O96          C97   1.281       .  A
C97         C948   1.434       .  S
O98         H117   0.990       .  S
O98         H121   0.990       .  S
O99         H113   0.990       .  S
O99         H120   0.990       .  S
O100        C104   1.283       .  A
O101        C104   1.285       .  A
O102        H112   0.990       .  S
O103        H116   0.990       .  S
C104        C957   1.440       .  S
C127        N128   1.359       .  A
C127        N132   1.355       .  A
C127        C945   1.435       .  S
N128        C129   1.360       .  A
C129        N130   1.358       .  A
C129        C928   1.438   1_545  S
N130        C131   1.356       .  A
C131        N132   1.354       .  A
C131        C921   1.433       .  S
Zr133       O134   2.440       .  S
Zr133       O135   2.432       .  S
Zr133       O136   2.434       .  S
Zr133       O139   2.421       .  S
Zr133       O141   2.379       .  S
Zr133       O142   2.382       .  S
Zr133       O143   2.403       .  S
Zr133       O144   2.400       .  S
O134        H190   0.991       .  S
O134        H198   0.990       .  S
O135        C155   1.282       .  A
O136        C157   1.282       .  A
O137       Zr147   2.437       .  S
O137        C156   1.284       .  A
O138       Zr146   2.443       .  S
O138        C157   1.285       .  A
O139        C156   1.281       .  A
O140       Zr148   2.424       .  S
O140        C155   1.280       .  A
O141       Zr146   2.398       .  S
O141       Zr148   2.382       .  S
O142       Zr147   2.395       .  S
O142       Zr148   2.375       .  S
O142        H177   0.966       .  S
O143       Zr146   2.400       .  S
O143       Zr163   2.399       .  S
O143        H180   0.966       .  S
O144       Zr147   2.396       .  S
O144       Zr163   2.393       .  S
Zr145       O170   2.444       .  S
Zr145       O164   2.429       .  S
Zr145       O172   2.429       .  S
Zr145       O160   2.423       .  S
Zr145       O151   2.397       .  S
Zr145       O152   2.402       .  S
Zr145       O153   2.379       .  S
Zr145       O154   2.382       .  S
Zr146       O165   2.437       .  S
Zr146       O158   2.434       .  S
Zr146       O159   2.445       .  S
Zr146       O152   2.397       .  S
Zr146       O153   2.388       .  S
Zr147       O149   2.436       .  S
Zr147       O171   2.438       .  S
Zr147       O173   2.446       .  S
Zr147       O151   2.390       .  S
Zr147       O154   2.391       .  S
Zr148       O174   2.435       .  S
Zr148       O175   2.436       .  S
Zr148       O150   2.435       .  S
Zr148       O151   2.394       .  S
Zr148       O152   2.391       .  S
O149        H186   0.990       .  S
O150        H181   0.990       .  S
O150        H195   0.990       .  S
O152        H178   0.966       .  S
O153       Zr163   2.374       .  S
O154       Zr163   2.377       .  S
O154        H179   0.966       .  S
C155        C912   1.435       .  S
C156        C916   1.434       .  S
C157        C920   1.441       .  S
O158        H194   0.990       .  S
O159        C161   1.286       .  A
O160        C161   1.282       .  A
C161        C925   1.436       .  S
O162       Zr163   2.439       .  S
O162        H191   0.990       .  S
Zr163       O166   2.438       .  S
Zr163       O167   2.437       .  S
Zr163       O168   2.428       .  S
O164        C169   1.283       .  A
O165        H182   0.990       .  S
O165        H197   0.990       .  S
O166        H183   0.990       .  S
O167        H187   0.990       .  S
O167        H196   0.990       .  S
O168        C169   1.281       .  A
C169       C1036   1.434       .  S
O170        H189   0.990       .  S
O170        H193   0.990       .  S
O171        H185   0.990       .  S
O171        H192   0.990       .  S
O172        C176   1.282       .  A
O173        C176   1.286       .  A
O174        H184   0.990       .  S
O175        H188   0.990       .  S
C176        C976   1.441       .  S
Zr199       O200   2.442       .  S
Zr199       O201   2.436       .  S
Zr199       O202   2.431       .  S
Zr199       O205   2.422       .  S
Zr199       O207   2.378       .  S
Zr199       O208   2.381       .  S
Zr199       O209   2.406       .  S
Zr199       O210   2.404       .  S
O200        H256   0.991       .  S
O200        H264   0.990       .  S
O201        C221   1.283       .  A
O202        C223   1.282       .  A
O203       Zr213   2.452       .  S
O203        C222   1.287       .  A
O204       Zr212   2.449       .  S
O204        C223   1.286       .  A
O205        C222   1.282       .  A
O206       Zr214   2.422       .  S
O206        C221   1.280       .  A
O207       Zr212   2.396       .  S
O207       Zr214   2.380       .  S
O208       Zr213   2.394       .  S
O208       Zr214   2.373       .  S
O208        H243   0.966       .  S
O209       Zr212   2.403       .  S
O209       Zr229   2.399       .  S
O209        H246   0.966       .  S
O210       Zr213   2.395       .  S
O210       Zr229   2.398       .  S
Zr211       O236   2.447       .  S
Zr211       O230   2.434       .  S
Zr211       O238   2.424       .  S
Zr211       O226   2.423       .  S
Zr211       O217   2.399       .  S
Zr211       O218   2.403       .  S
Zr211       O219   2.378       .  S
Zr211       O220   2.384       .  S
Zr212       O231   2.435       .  S
Zr212       O224   2.436       .  S
Zr212       O225   2.449       .  S
Zr212       O218   2.400       .  S
Zr212       O219   2.392       .  S
Zr213       O215   2.434       .  S
Zr213       O237   2.437       .  S
Zr213       O239   2.449       .  S
Zr213       O217   2.394       .  S
Zr213       O220   2.394       .  S
Zr214       O240   2.435       .  S
Zr214       O241   2.434       .  S
Zr214       O216   2.436       .  S
Zr214       O217   2.392       .  S
Zr214       O218   2.396       .  S
O215        H252   0.990       .  S
O216        H247   0.990       .  S
O216        H261   0.990       .  S
O218        H244   0.966       .  S
O219       Zr229   2.375       .  S
O220       Zr229   2.376       .  S
O220        H245   0.966       .  S
C221        C968   1.437       .  S
C222       C1048   1.441       .  S
C223        C956   1.442       .  S
O224        H260   0.990       .  S
O225        C227   1.287       .  A
O226        C227   1.281       .  A
C227        C897   1.438       .  S
O228       Zr229   2.439       .  S
O228        H257   0.990       .  S
Zr229       O232   2.437       .  S
Zr229       O233   2.439       .  S
Zr229       O234   2.434       .  S
O230        C235   1.283       .  A
O231        H248   0.990       .  S
O231        H263   0.990       .  S
O232        H249   0.990       .  S
O233        H253   0.990       .  S
O233        H262   0.990       .  S
O234        C235   1.282       .  A
C235        C901   1.440       .  S
O236        H255   0.990       .  S
O236        H259   0.990       .  S
O237        H251   0.990       .  S
O237        H258   0.990       .  S
O238        C242   1.282       .  A
O239        C242   1.287       .  A
O240        H250   0.990       .  S
O241        H254   0.990       .  S
C242        C905   1.441       .  S
Zr265       O266   2.440       .  S
Zr265       O267   2.437       .  S
Zr265       O268   2.426       .  S
Zr265       O271   2.425       .  S
Zr265       O273   2.381       .  S
Zr265       O274   2.379       .  S
Zr265       O275   2.404       .  S
Zr265       O276   2.401       .  S
O266        H322   0.990       .  S
O266        H330   0.990       .  S
O267        C287   1.284       .  A
O268        C289   1.282       .  A
O269       Zr279   2.449       .  S
O269        C288   1.286       .  A
O270       Zr278   2.446       .  S
O270        C289   1.286       .  A
O271        C288   1.282       .  A
O272       Zr280   2.421       .  S
O272        C287   1.280       .  A
O273       Zr278   2.397       .  S
O273       Zr280   2.376       .  S
O274       Zr279   2.390       .  S
O274       Zr280   2.375       .  S
O274        H309   0.966       .  S
O275       Zr278   2.400       .  S
O275       Zr295   2.392       .  S
O275        H312   0.966       .  S
O276       Zr279   2.394       .  S
O276       Zr295   2.398       .  S
Zr277       O302   2.445       .  S
Zr277       O296   2.430       .  S
Zr277       O304   2.428       .  S
Zr277       O292   2.430       .  S
Zr277       O283   2.399       .  S
Zr277       O284   2.402       .  S
Zr277       O285   2.378       .  S
Zr277       O286   2.383       .  S
Zr278       O297   2.437       .  S
Zr278       O290   2.435       .  S
Zr278       O291   2.451       .  S
Zr278       O284   2.398       .  S
Zr278       O285   2.388       .  S
Zr279       O281   2.435       .  S
Zr279       O303   2.438       .  S
Zr279       O305   2.441       .  S
Zr279       O283   2.394       .  S
Zr279       O286   2.392       .  S
Zr280       O306   2.436       .  S
Zr280       O307   2.435       .  S
Zr280       O282   2.435       .  S
Zr280       O283   2.394       .  S
Zr280       O284   2.393       .  S
O281        H318   0.990       .  S
O282        H313   0.990       .  S
O282        H327   0.990       .  S
O284        H310   0.966       .  S
O285       Zr295   2.373       .  S
O286       Zr295   2.378       .  S
O286        H311   0.966       .  S
C287        C888   1.436       .  S
C288        C889   1.441       .  S
C289        C896   1.438       .  S
O290        H326   0.990       .  S
O291        C293   1.287       .  A
O292        C293   1.283       .  A
C293        C980   1.443       .  S
O294       Zr295   2.438       .  S
O294        H323   0.990       .  S
Zr295       O298   2.437       .  S
Zr295       O299   2.439       .  S
Zr295       O300   2.421       .  S
O296        C301   1.283       .  A
O297        H314   0.990       .  S
O297        H329   0.990       .  S
O298        H315   0.990       .  S
O299        H319   0.990       .  S
O299        H328   0.990       .  S
O300        C301   1.280       .  A
C301       C1057   1.432       .  S
O302        H321   0.990       .  S
O302        H325   0.990       .  S
O303        H317   0.990       .  S
O303        H324   0.990       .  S
O304        C308   1.283       .  A
O305        C308   1.285       .  A
O306        H316   0.990       .  S
O307        H320   0.990       .  S
C308        C964   1.438       .  S
C331        N332   1.361       .  A
C331        N336   1.358       .  A
C331        C944   1.443       .  S
N332        C333   1.361   1_554  A
C333        N334   1.360       .  A
C333        C881   1.446       .  S
N334        C335   1.359   1_556  A
C335        N336   1.357       .  A
C335        C880   1.442       .  S
Zr337       O338   2.439       .  S
Zr337       O339   2.418       .  S
Zr337       O340   2.422       .  S
Zr337       O343   2.419       .  S
Zr337       O345   2.381       .  S
Zr337       O346   2.380       .  S
Zr337       O347   2.398       .  S
Zr337       O348   2.394       .  S
O338        H394   0.990       .  S
O338        H402   0.990       .  S
O339        C359   1.280       .  A
O340        C361   1.280       .  A
O341       Zr351   2.460       .  S
O341        C360   1.289       .  A
O342       Zr350   2.446       .  S
O342        C361   1.285       .  A
O343        C360   1.281       .  A
O344       Zr352   2.410       .  S
O344        C359   1.278       .  A
O345       Zr350   2.397       .  S
O345       Zr352   2.381       .  S
O346       Zr351   2.389       .  S
O346       Zr352   2.378       .  S
O346        H381   0.966       .  S
O347       Zr350   2.399       .  S
O347       Zr367   2.392       .  S
O347        H384   0.966       .  S
O348       Zr351   2.390       .  S
O348       Zr367   2.391       .  S
Zr349       O374   2.447       .  S
Zr349       O368   2.421       .  S
Zr349       O376   2.419       .  S
Zr349       O364   2.432       .  S
Zr349       O355   2.397       .  S
Zr349       O356   2.396       .  S
Zr349       O357   2.378       .  S
Zr349       O358   2.385       .  S
Zr350       O369   2.436       .  S
Zr350       O362   2.434       .  S
Zr350       O363   2.449       .  S
Zr350       O356   2.398       .  S
Zr350       O357   2.391       .  S
Zr351       O353   2.435       .  S
Zr351       O375   2.437       .  S
Zr351       O377   2.448       .  S
Zr351       O355   2.396       .  S
Zr351       O358   2.392       .  S
Zr352       O378   2.436       .  S
Zr352       O379   2.436       .  S
Zr352       O354   2.436       .  S
Zr352       O355   2.388       .  S
Zr352       O356   2.390       .  S
O353        H390   0.990       .  S
O354        H385   0.990       .  S
O354        H399   0.990       .  S
O356        H382   0.966       .  S
O357       Zr367   2.380       .  S
O358       Zr367   2.377       .  S
O358        H383   0.966       .  S
C359        C989   1.421       .  S
C360        C884   1.444       .  S
C361       C1016   1.438       .  S
O362        H398   0.990       .  S
O363        C365   1.287       .  A
O364        C365   1.283       .  A
C365        C865   1.443       .  S
O366       Zr367   2.439       .  S
O366        H395   0.990       .  S
Zr367       O370   2.437       .  S
Zr367       O371   2.440       .  S
Zr367       O372   2.414       .  S
O368        C373   1.281       .  A
O369        H386   0.990       .  S
O369        H401   0.990       .  S
O370        H387   0.990       .  S
O371        H391   0.990       .  S
O371        H400   0.990       .  S
O372        C373   1.279       .  A
C373        C869   1.424       .  S
O374        H393   0.990       .  S
O374        H397   0.990       .  S
O375        H389   0.990       .  S
O375        H396   0.990       .  S
O376        C380   1.281       .  A
O377        C380   1.287       .  A
O378        H388   0.990       .  S
O379        H392   0.990       .  S
C380        C876   1.437       .  S
Zr403       O404   2.440       .  S
Zr403       O405   2.420       .  S
Zr403       O406   2.424       .  S
Zr403       O409   2.419       .  S
Zr403       O411   2.375       .  S
Zr403       O412   2.381       .  S
Zr403       O413   2.398       .  S
Zr403       O414   2.394       .  S
O404        H460   0.990       .  S
O404        H468   0.990       .  S
O405        C425   1.280       .  A
O406        C427   1.280       .  A
O407       Zr417   2.444       .  S
O407        C426   1.285       .  A
O408       Zr416   2.441       .  S
O408        C427   1.284       .  A
O409        C426   1.281       .  A
O410       Zr418   2.408       .  S
O410        C425   1.277       .  A
O411       Zr416   2.391       .  S
O411       Zr418   2.378       .  S
O412       Zr417   2.392       .  S
O412       Zr418   2.379       .  S
O412        H447   0.966       .  S
O413       Zr416   2.399       .  S
O413       Zr433   2.396       .  S
O413        H450   0.966       .  S
O414       Zr417   2.393       .  S
O414       Zr433   2.392       .  S
Zr415       O440   2.447       .  S
Zr415       O434   2.421       .  S
Zr415       O442   2.418       .  S
Zr415       O430   2.421       .  S
Zr415       O421   2.393       .  S
Zr415       O422   2.397       .  S
Zr415       O423   2.377       .  S
Zr415       O424   2.380       .  S
Zr416       O435   2.436       .  S
Zr416       O428   2.436       .  S
Zr416       O429   2.440       .  S
Zr416       O422   2.401       .  S
Zr416       O423   2.391       .  S
Zr417       O419   2.435       .  S
Zr417       O441   2.438       .  S
Zr417       O443   2.442       .  S
Zr417       O421   2.392       .  S
Zr417       O424   2.391       .  S
Zr418       O444   2.437       .  S
Zr418       O445   2.435       .  S
Zr418       O420   2.436       .  S
Zr418       O421   2.387       .  S
Zr418       O422   2.391       .  S
O419        H456   0.990       .  S
O420        H451   0.990       .  S
O420        H465   0.990       .  S
O422        H448   0.966       .  S
O423       Zr433   2.375       .  S
O424       Zr433   2.377       .  S
O424        H449   0.966       .  S
C425        C985   1.421       .  S
C426       C1004   1.436       .  S
C427       C1037   1.436       .  S
O428        H464   0.990       .  S
O429        C431   1.285       .  A
O430        C431   1.281       .  A
C431        C860   1.433       .  S
O432       Zr433   2.438       .  S
O432        H461   0.990       .  S
Zr433       O436   2.437       .  S
Zr433       O437   2.438       .  S
Zr433       O438   2.421       .  S
O434        C439   1.281       .  A
O435        H452   0.990       .  S
O435        H467   0.990       .  S
O436        H453   0.990       .  S
O437        H457   0.990       .  S
O437        H466   0.990       .  S
O438        C439   1.280       .  A
C439        C861   1.428       .  S
O440        H459   0.990       .  S
O440        H463   0.990       .  S
O441        H455   0.990       .  S
O441        H462   0.990       .  S
O442        C446   1.281       .  A
O443        C446   1.285       .  A
O444        H454   0.990       .  S
O445        H458   0.990       .  S
C446        C853   1.434       .  S
Zr469       O470   2.442       .  S
Zr469       O471   2.434       .  S
Zr469       O472   2.433       .  S
Zr469       O475   2.422       .  S
Zr469       O477   2.379       .  S
Zr469       O478   2.383       .  S
Zr469       O479   2.403       .  S
Zr469       O480   2.402       .  S
O470        H526   0.990       .  S
O470        H534   0.990       .  S
O471        C491   1.283       .  A
O472        C493   1.282       .  A
O473       Zr483   2.456       .  S
O473        C492   1.288       .  A
O474       Zr482   2.439       .  S
O474        C493   1.284       .  A
O475        C492   1.282       .  A
O476       Zr484   2.419       .  S
O476        C491   1.279       .  A
O477       Zr482   2.396       .  S
O477       Zr484   2.379       .  S
O478       Zr483   2.394       .  S
O478       Zr484   2.379       .  S
O478        H513   0.966       .  S
O479       Zr482   2.400       .  S
O479       Zr499   2.395       .  S
O479        H516   0.966       .  S
O480       Zr483   2.392       .  S
O480       Zr499   2.392       .  S
Zr481       O506   2.449       .  S
Zr481       O500   2.435       .  S
Zr481       O508   2.421       .  S
Zr481       O496   2.425       .  S
Zr481       O487   2.399       .  S
Zr481       O488   2.401       .  S
Zr481       O489   2.376       .  S
Zr481       O490   2.382       .  S
Zr482       O501   2.434       .  S
Zr482       O494   2.436       .  S
Zr482       O495   2.440       .  S
Zr482       O488   2.398       .  S
Zr482       O489   2.389       .  S
Zr483       O485   2.435       .  S
Zr483       O507   2.437       .  S
Zr483       O509   2.448       .  S
Zr483       O487   2.396       .  S
Zr483       O490   2.393       .  S
Zr484       O510   2.436       .  S
Zr484       O511   2.436       .  S
Zr484       O486   2.436       .  S
Zr484       O487   2.395       .  S
Zr484       O488   2.392       .  S
O485        H522   0.990       .  S
O486        H517   0.990       .  S
O486        H531   0.990       .  S
O488        H514   0.966       .  S
O489       Zr499   2.377       .  S
O490       Zr499   2.378       .  S
O490        H515   0.966       .  S
C491       C1028   1.433       .  S
C492       C1009   1.443       .  S
C493       C1049   1.439       .  S
O494        H530   0.990       .  S
O495        C497   1.285       .  A
O496        C497   1.281       .  A
C497        C845   1.435       .  S
O498       Zr499   2.440       .  S
O498        H527   0.990       .  S
Zr499       O502   2.436       .  S
Zr499       O503   2.441       .  S
Zr499       O504   2.426       .  S
O500        C505   1.284       .  A
O501        H518   0.990       .  S
O501        H533   0.990       .  S
O502        H519   0.990       .  S
O503        H523   0.990       .  S
O503        H532   0.989       .  S
O504        C505   1.281       .  A
C505        C852   1.437       .  S
O506        H525   0.990       .  S
O506        H529   0.990       .  S
O507        H521   0.990       .  S
O507        H528   0.990       .  S
O508        C512   1.281       .  A
O509        C512   1.286       .  A
O510        H520   0.990       .  S
O511        H524   0.990       .  S
C512        C844   1.438       .  S
Zr535       O536   2.441       .  S
Zr535       O537   2.433       .  S
Zr535       O538   2.421       .  S
Zr535       O541   2.419       .  S
Zr535       O543   2.379       .  S
Zr535       O544   2.379       .  S
Zr535       O545   2.402       .  S
Zr535       O546   2.399       .  S
O536        H592   0.990       .  S
O536        H600   0.990       .  S
O537        C557   1.283       .  A
O538        C559   1.280       .  A
O539       Zr549   2.447       .  S
O539        C558   1.286       .  A
O540       Zr548   2.443       .  S
O540        C559   1.285       .  A
O541        C558   1.281       .  A
O542       Zr550   2.424       .  S
O542        C557   1.281       .  A
O543       Zr548   2.394       .  S
O543       Zr550   2.377       .  S
O544       Zr549   2.389       .  S
O544       Zr550   2.375       .  S
O544        H579   0.966       .  S
O545       Zr548   2.398       .  S
O545       Zr565   2.392       .  S
O545        H582   0.966       .  S
O546       Zr549   2.392       .  S
O546       Zr565   2.394       .  S
Zr547       O572   2.448       .  S
Zr547       O566   2.431       .  S
Zr547       O574   2.424       .  S
Zr547       O562   2.427       .  S
Zr547       O553   2.399       .  S
Zr547       O554   2.401       .  S
Zr547       O555   2.378       .  S
Zr547       O556   2.382       .  S
Zr548       O567   2.435       .  S
Zr548       O560   2.434       .  S
Zr548       O561   2.445       .  S
Zr548       O554   2.397       .  S
Zr548       O555   2.389       .  S
Zr549       O551   2.435       .  S
Zr549       O573   2.438       .  S
Zr549       O575   2.439       .  S
Zr549       O553   2.395       .  S
Zr549       O556   2.393       .  S
Zr550       O576   2.435       .  S
Zr550       O577   2.435       .  S
Zr550       O552   2.436       .  S
Zr550       O553   2.394       .  S
Zr550       O554   2.393       .  S
O551        H588   0.990       .  S
O552        H583   0.990       .  S
O552        H597   0.990       .  S
O554        H580   0.966       .  S
O555       Zr565   2.377       .  S
O556       Zr565   2.378       .  S
O556        H581   0.966       .  S
C557        C997   1.435       .  S
C558       C1021   1.438       .  S
C559       C1064   1.435       .  S
O560        H596   0.990       .  S
O561        C563   1.286       .  A
O562        C563   1.282       .  A
C563        C833   1.438       .  S
O564       Zr565   2.439       .  S
O564        H593   0.990       .  S
Zr565       O568   2.437       .  S
Zr565       O569   2.438       .  S
Zr565       O570   2.421       .  S
O566        C571   1.283       .  A
O567        H584   0.990       .  S
O567        H599   0.990       .  S
O568        H585   0.990       .  S
O569        H589   0.990       .  S
O569        H598   0.990       .  S
O570        C571   1.280       .  A
C571        C837   1.432       .  S
O572        H591   0.990       .  S
O572        H595   0.990       .  S
O573        H587   0.990       .  S
O573        H594   0.990       .  S
O574        C578   1.282       .  A
O575        C578   1.285       .  A
O576        H586   0.990       .  S
O577        H590   0.990       .  S
C578        C829   1.435       .  S
C601        N602   1.354       .  A
C601        N606   1.357       .  A
C601        C840   1.431       .  S
N602        C603   1.353       .  A
C603        N604   1.356       .  A
C603        C828   1.430       .  S
N604        C605   1.358       .  A
C605        N606   1.358       .  A
C605        C857   1.435       .  S
C607        N608   1.353       .  A
C607        N612   1.356       .  A
C607        C872   1.424       .  S
N608        C609   1.351       .  A
C609        N610   1.354       .  A
C609        C824   1.425       .  S
N610        C611   1.356       .  A
C611        N612   1.357       .  A
C611        C864   1.428       .  S
C613        N614   1.358       .  A
C613        N618   1.358       .  A
C613        C848   1.437       .  S
N614        C615   1.357       .  A
C615        N616   1.357       .  A
C615        C820   1.439       .  S
N616        C617   1.358       .  A
C617        N618   1.358       .  A
C617        C873   1.438       .  S
C619        N620   1.355       .  A
C619        N624   1.360       .  A
C619        C849   1.437       .  S
N620        C621   1.354       .  A
C621        N622   1.357       .  A
C621        C813   1.435       .  S
N622        C623   1.359       .  A
C623        N624   1.361       .  A
C623        C836   1.440       .  S
C625        N626   1.359       .  A
C625        N630   1.360       .  A
C625        C908   1.442       .  S
N626        C627   1.358       .  A
C627        N628   1.357       .  A
C627        C809   1.440       .  S
N628        C629   1.358       .  A
C629        N630   1.360       .  A
C629        C936   1.442       .  S
C631        N632   1.356       .  A
C631        N636   1.361       .  A
C631        C904   1.439       .  S
N632        C633   1.355       .  A
C633        N634   1.356       .  A
C633        C805   1.434       .  S
N634        C635   1.357       .  A
C635        N636   1.361       .  A
C635        C893   1.439       .  S
C637        N638   1.360       .  A
C637        N642   1.359       .  A
C637        C892   1.441       .  S
N638        C639   1.359       .  A
C639        N640   1.358       .  A
C639        C917   1.441       .  S
N640        C641   1.357       .  A
C641        N642   1.358       .  A
C641        C801   1.441       .  S
C643        N644   1.358       .  A
C643        N648   1.355       .  A
C643        C937   1.432       .  S
N644        C645   1.358       .  A
C645        N646   1.358       .  A
C645        C913   1.435       .  S
N646        C647   1.357       .  A
C647        N648   1.354       .  A
C647        C800   1.435       .  S
C649        N650   1.360       .  A
C649        N654   1.355       .  A
C649        C885   1.436       .  S
N650        C651   1.361       .  A
C651        N652   1.358       .  A
C651        C832   1.437       .  S
N652        C653   1.356       .  A
C653        N654   1.354       .  A
C653        C796   1.433       .  S
C655        N656   1.358       .  A
C655        N660   1.359       .  A
C655        C900   1.439       .  S
N656        C657   1.357       .  A
C657        N658   1.358       .  A
C657        C789   1.438       .  S
N658        C659   1.358       .  A
C659        N660   1.359       .  A
C659        C841   1.439       .  S
C661        N662   1.355       .  A
C661        N666   1.359       .  A
C661        C909   1.435       .  S
N662        C663   1.355       .  A
C663        N664   1.356       .  A
C663        C785   1.432       .  S
N664        C665   1.357       .  A
C665        N666   1.359       .  A
C665        C856   1.435       .  S
C667        N668   1.358       .  A
C667        N672   1.360       .  A
C667        C929   1.443       .  S
N668        C669   1.358       .  A
C669        N670   1.359       .  A
C669        C781   1.443       .  S
N670        C671   1.360       .  A
C671        N672   1.361       .  A
C671        C868   1.445       .  S
O673       Zr709   2.444   1_565  S
O673        C684   1.292   1_554  A
O674       Zr708   2.437   1_565  S
O674        C685   1.290       .  A
O675       Zr681   2.443   1_556  S
O675        C686   1.291       .  A
O676       Zr681   2.434       .  S
O676        C687   1.290       .  A
O677       Zr711   2.450   1_565  S
O677        C687   1.293       .  A
O678       Zr710   2.439   1_565  S
O678        C686   1.290       .  A
O679       Zr681   2.435   1_455  S
O679        C685   1.290       .  A
O680       Zr681   2.426   1_556  S
O680        C684   1.288       .  A
Zr681       O682   2.338   1_665  S
Zr681       O683   2.338   1_564  S
Zr681       O691   2.346   1_565  S
Zr681       O689   2.334   1_664  S
O682       Zr708   2.338       .  S
O682       Zr711   2.340   1_455  S
O683       Zr709   2.339   1_556  S
O683       Zr710   2.334       .  S
C684       C1065   1.430       .  S
C685       C1041   1.432       .  S
C686       C1008   1.436       .  S
C687        C984   1.437       .  S
H688        O689   0.965   1_565  S
O689       Zr708   2.335   1_556  S
O689       Zr710   2.337   1_455  S
H690        O691   0.966   1_565  S
O691       Zr709   2.344       .  S
O691       Zr711   2.341       .  S
O692       Zr708   2.432       .  S
O692        C715   1.289       .  A
O693       Zr709   2.443       .  S
O693        C716   1.292       .  A
O694       Zr710   2.429   1_455  S
O694        C717   1.288       .  A
O695       Zr711   2.444   1_455  S
O695        C718   1.291       .  A
O696       Zr711   2.446       .  S
O696        C719   1.292       .  A
O697       Zr710   2.432       .  S
O697        C720   1.289       .  A
O698       Zr712   2.457   1_556  S
O698        C721   1.294       .  A
O699       Zr712   2.455       .  S
O699        C722   1.294       .  A
O700       Zr710   2.429       .  S
O700        C721   1.289       .  A
O701       Zr711   2.436       .  S
O701        C722   1.291       .  A
O702       Zr708   2.429   1_556  S
O702        C717   1.288       .  A
O703       Zr709   2.440   1_556  S
O703        C720   1.291       .  A
O704       Zr709   2.439       .  S
O704        C719   1.290       .  A
O705       Zr708   2.427       .  S
O705        C718   1.289       .  A
O706       Zr712   2.457   1_455  S
O706        C715   1.294       .  A
O707       Zr712   2.455       .  S
O707        C716   1.294       .  A
Zr708       O714   2.338   1_554  S
Zr708       O726   2.340       .  S
Zr709       O713   2.342       .  S
Zr709       O724   2.346   1_554  S
Zr710       O714   2.339   1_655  S
Zr710       O724   2.344       .  S
Zr711       O713   2.345       .  S
Zr711       O726   2.349   1_655  S
Zr712       O713   2.348       .  S
Zr712       O714   2.343   1_654  S
Zr712       O726   2.349   1_655  S
Zr712       O724   2.352   1_554  S
C715        C877   1.440       .  S
C716       C1056   1.443       .  S
C717        C996   1.424       .  S
C718        C924   1.432       .  S
C719        C972   1.438       .  S
C720       C1029   1.433       .  S
C721       C1020   1.439       .  S
C722        C949   1.439       .  S
H723        O724   0.966       .  S
H725        O726   0.966       .  S
O727       Zr763   2.436       .  S
O727        C738   1.290       .  A
O728       Zr762   2.454       .  S
O728        C739   1.293       .  A
O729       Zr735   2.428       .  S
O729        C740   1.289       .  A
O730       Zr735   2.438       .  S
O730        C741   1.290       .  A
O731       Zr765   2.441       .  S
O731        C741   1.291       .  A
O732       Zr764   2.428       .  S
O732        C740   1.288       .  A
O733       Zr735   2.432       .  S
O733        C739   1.290       .  A
O734       Zr735   2.429       .  S
O734        C738   1.289       .  A
Zr735       O736   2.337       .  S
Zr735       O737   2.335       .  S
Zr735       O745   2.336       .  S
Zr735       O743   2.341       .  S
O736       Zr762   2.349       .  S
O736       Zr765   2.343       .  S
O737       Zr763   2.333       .  S
O737       Zr764   2.336       .  S
C738        C825   1.429       .  S
C739        C817   1.438       .  S
C740        C821   1.424       .  S
C741        C816   1.435       .  S
H742        O743   0.965       .  S
O743       Zr762   2.341       .  S
O743       Zr764   2.343       .  S
H744        O745   0.965       .  S
O745       Zr763   2.338       .  S
O745       Zr765   2.338       .  S
O746       Zr762   2.450       .  S
O746        C769   1.293       .  A
O747       Zr763   2.429       .  S
O747        C770   1.289       .  A
O748       Zr764   2.436       .  S
O748        C771   1.290       .  A
O749       Zr765   2.436       .  S
O749        C772   1.290       .  A
O750       Zr765   2.442       .  S
O750        C773   1.291       .  A
O751       Zr764   2.433       .  S
O751        C774   1.289       .  A
O752       Zr766   2.440       .  S
O752        C775   1.291       .  A
O753       Zr766   2.440       .  S
O753        C776   1.291       .  A
O754       Zr764   2.439       .  S
O754        C775   1.291       .  A
O755       Zr765   2.434       .  S
O755        C776   1.290       .  A
O756       Zr762   2.458       .  S
O756        C771   1.294       .  A
O757       Zr763   2.436       .  S
O757        C774   1.290       .  A
O758       Zr763   2.436       .  S
O758        C773   1.290       .  A
O759       Zr762   2.447       .  S
O759        C772   1.293       .  A
O760       Zr766   2.441       .  S
O760        C769   1.291       .  A
O761       Zr766   2.461       .  S
O761        C770   1.295       .  A
Zr762       O768   2.347       .  S
Zr762       O780   2.351       .  S
Zr763       O767   2.342       .  S
Zr763       O778   2.342       .  S
Zr764       O768   2.336       .  S
Zr764       O778   2.342       .  S
Zr765       O767   2.342       .  S
Zr765       O780   2.345       .  S
Zr766       O767   2.340       .  S
Zr766       O768   2.348       .  S
Zr766       O780   2.348       .  S
Zr766       O778   2.340       .  S
C769        C812   1.440       .  S
C770        C804   1.440       .  S
C771        C784   1.442       .  S
C772        C792   1.436       .  S
C773        C793   1.434       .  S
C774        C788   1.431       .  S
C775        C797   1.435       .  S
C776        C808   1.433       .  S
H777        O778   0.966       .  S
H779        O780   0.966       .  S
C781        C782   1.210       .  T
C782        C783   1.419       .  S
C783        C784   1.210       .  T
C785        C786   1.203       .  T
C786        C787   1.408       .  S
C787        C788   1.203       .  T
C789        C790   1.207       .  T
C790        C791   1.413       .  S
C791        C792   1.206       .  T
C793        C794   1.205       .  T
C794        C795   1.410       .  S
C795        C796   1.204       .  T
C797        C798   1.206       .  T
C798        C799   1.412       .  S
C799        C800   1.205       .  T
C801        C802   1.209       .  T
C802        C803   1.417       .  S
C803        C804   1.209       .  T
C805        C806   1.204       .  T
C806        C807   1.410       .  S
C807        C808   1.204       .  T
C809        C810   1.208       .  T
C810        C811   1.416       .  S
C811        C812   1.208       .  T
C813        C814   1.206       .  T
C814        C815   1.412       .  S
C815        C816   1.206       .  T
C817        C818   1.208       .  T
C818        C819   1.415       .  S
C819        C820   1.208       .  T
C821        C822   1.199       .  T
C822        C823   1.402       .  S
C823        C824   1.199       .  T
C825        C826   1.202       .  T
C826        C827   1.406       .  S
C827        C828   1.202       .  T
C829        C830   1.206       .  T
C830        C831   1.413       .  S
C831        C832   1.206       .  T
C833        C834   1.208       .  T
C834        C835   1.415       .  S
C835        C836   1.208       .  T
C837        C838   1.204       .  T
C838        C839   1.408       .  S
C839        C840   1.203       .  T
C841        C842   1.208       .  T
C842        C843   1.415       .  S
C843        C844   1.208       .  T
C845        C846   1.206       .  T
C846        C847   1.412       .  S
C847        C848   1.206       .  T
C849        C850   1.207       .  T
C850        C851   1.414       .  S
C851        C852   1.207       .  T
C853        C854   1.205       .  T
C854        C855   1.411       .  S
C855        C856   1.205       .  T
C857        C858   1.205       .  T
C858        C859   1.411       .  S
C859        C860   1.205       .  T
C861        C862   1.201       .  T
C862        C863   1.405       .  S
C863        C864   1.201       .  T
C865        C866   1.211       .  T
C866        C867   1.421       .  S
C867        C868   1.211       .  T
C869        C870   1.199       .  T
C870        C871   1.401       .  S
C871        C872   1.199       .  T
C873        C874   1.207       .  T
C874        C875   1.414       .  S
C875        C876   1.207       .  T
C877        C878   1.209       .  T
C878        C879   1.417       .  S
C879        C880   1.209       .  T
C881        C882   1.212       .  T
C882        C883   1.421       .  S
C883        C884   1.211       .  T
C885        C886   1.206       .  T
C886        C887   1.413       .  S
C887        C888   1.206       .  T
C889        C890   1.209       .  T
C890        C891   1.417       .  S
C891        C892   1.209       .  T
C893        C894   1.208       .  T
C894        C895   1.415       .  S
C895        C896   1.208       .  T
C897        C898   1.208       .  T
C898        C899   1.416       .  S
C899        C900   1.208       .  T
C901        C902   1.208       .  T
C902        C903   1.416       .  S
C903        C904   1.208       .  T
C905        C906   1.209       .  T
C906        C907   1.418       .  S
C907        C908   1.209       .  T
C909        C910   1.206       .  T
C910        C911   1.412       .  S
C911        C912   1.206       .  T
C913        C914   1.205       .  T
C914        C915   1.411       .  S
C915        C916   1.205       .  T
C917        C918   1.209       .  T
C918        C919   1.418       .  S
C919        C920   1.209       .  T
C921        C922   1.204       .  T
C922        C923   1.409       .  S
C923        C924   1.204       .  T
C925        C926   1.207       .  T
C926        C927   1.414       .  S
C927        C928   1.207       .  T
C929        C930   1.210       .  T
C930        C931   1.419       .  S
C931        C932   1.210       .  T
C933        C934   1.209       .  T
C934        C935   1.418       .  S
C935        C936   1.209       .  T
C937        C938   1.203       .  T
C938        C939   1.408       .  S
C939        C940   1.203       .  T
C941        C942   1.210       .  T
C942        C943   1.420       .  S
C943        C944   1.210       .  T
C945        C946   1.205       .  T
C946        C947   1.411       .  S
C947        C948   1.205       .  T
C949        C950   1.208       .  T
C950        C951   1.416       .  S
C951        C952   1.208       .  T
C953        C954   1.210       .  T
C954        C955   1.419       .  S
C955        C956   1.210       .  T
C957        C958   1.209       .  T
C958        C959   1.417       .  S
C959        C960   1.209       .  T
C961        C962   1.208       .  T
C962        C963   1.415       .  S
C963        C964   1.208       .  T
C965        C966   1.207       .  T
C966        C967   1.414       .  S
C967        C968   1.207       .  T
C969        C970   1.207       .  T
C970        C971   1.414       .  S
C971        C972   1.207       .  T
C973        C974   1.209       .  T
C974        C975   1.417       .  S
C975        C976   1.209       .  T
C977        C978   1.210       .  T
C978        C979   1.419       .  S
C979        C980   1.210       .  T
C981        C982   1.207       .  T
C982        C983   1.415       .  S
C983        C984   1.207       .  T
C985        C986   1.197       .  T
C986        C987   1.398       .  S
C987        C988   1.197       .  T
C989        C990   1.197       .  T
C990        C991   1.398       .  S
C991        C992   1.197       .  T
C993        C994   1.199       .  T
C994        C995   1.401       .  S
C995        C996   1.199       .  T
C997        C998   1.206       .  T
C998        C999   1.412       .  S
C999       C1000   1.206       .  T
C1001      C1002   1.207       .  T
C1002      C1003   1.414       .  S
C1003      C1004   1.207       .  T
C1005      C1006   1.206       .  T
C1006      C1007   1.413       .  S
C1007      C1008   1.206       .  T
C1009      C1010   1.210       .  T
C1010      C1011   1.420       .  S
C1011      C1012   1.210       .  T
C1013      C1014   1.209       .  T
C1014      C1015   1.416       .  S
C1015      C1016   1.208       .  T
C1017      C1018   1.208       .  T
C1018      C1019   1.416       .  S
C1019      C1020   1.208       .  T
C1021      C1022   1.207       .  T
C1022      C1023   1.414       .  S
C1023      C1024   1.207       .  T
C1025      C1026   1.205       .  T
C1026      C1027   1.410       .  S
C1027      C1028   1.205       .  T
C1029      C1030   1.205       .  T
C1030      C1031   1.410       .  S
C1031      C1032   1.204       .  T
C1033      C1034   1.205       .  T
C1034      C1035   1.411       .  S
C1035      C1036   1.205       .  T
C1037      C1038   1.206       .  T
C1038      C1039   1.413       .  S
C1039      C1040   1.207       .  T
C1041      C1042   1.204   1_554  T
C1042      C1043   1.409       .  S
C1043      C1044   1.204       .  T
C1045      C1046   1.210       .  T
C1046      C1047   1.418       .  S
C1047      C1048   1.209       .  T
C1049      C1050   1.208       .  T
C1050      C1051   1.416       .  S
C1051      C1052   1.208       .  T
C1053      C1054   1.210       .  T
C1054      C1055   1.419       .  S
C1055      C1056   1.210       .  T
C1057      C1058   1.204       .  T
C1058      C1059   1.409       .  S
C1059      C1060   1.204       .  T
C1061      C1062   1.206       .  T
C1062      C1063   1.412       .  S
C1063      C1064   1.206       .  T
C1065      C1066   1.203       .  T
C1066      C1067   1.408       .  S
C1067      C1068   1.203       .  T
