geometry optimzed in LAMMPS
_audit_creation_date              2020-12-01 
_audit_creation_method            'lammps2cif' 
_symmetry_space_group_name_H-M    'P1' 
_symmetry_Int_Tables_number       1 
_symmetry_cell_setting            triclinic 
loop_ 
_symmetry_equiv_pos_as_xyz 
  x,y,z 
_cell_length_a                    27.43883895 
_cell_length_b                    27.601527469225548 
_cell_length_c                    42.41924238480082 
_cell_angle_alpha                 89.85359411708625 
_cell_angle_beta                  90.3061089229648 
_cell_angle_gamma                 90.10088772784715 
loop_ 
_atom_site_label 
_atom_site_type_symbol 
_atom_site_fract_x 
_atom_site_fract_y 
_atom_site_fract_z 
_atom_site_charge 
O1          O  0.40505763  0.21535012  0.13182165    -0.72400
O2          O  0.44486176  0.08238350  0.12792084    -0.72600
O3          O  0.41112228  0.14797202  0.08621109    -0.72500
O4          O  0.44066834  0.14946340  0.17334346    -0.72500
O5          O  0.36698243  0.12610093  0.18418905    -0.72400
O6          O  0.33651766  0.12621638  0.09577391    -0.72500
O7          O  0.37042557  0.06057477  0.13748754    -0.72400
O8          O  0.33167421  0.19122259  0.14284263    -0.72600
V9          V  0.42395550  0.14847041  0.12999509     1.35200
V10         V  0.35284148  0.12652423  0.13986829     1.35200
C11         C  0.36109966  0.22553207  0.13804129     0.76800
C12         C  0.41409099  0.04877501  0.13260371     0.76900
C13         C  0.36935269  0.13675239  0.07595305     0.76800
C14         C  0.40952182  0.13718009  0.19362666     0.76700
O15         O  0.47904187  0.67950501  0.12884218    -0.72400
O16         O  0.43538622  0.81153288  0.12726621    -0.72600
O17         O  0.46717851  0.74817726  0.08442380    -0.72500
O18         O  0.44483638  0.74261666  0.17162010    -0.72500
O19         O  0.51571813  0.77449508  0.18089854    -0.72400
O20         O  0.54339299  0.76497252  0.09230750    -0.72500
O21         O  0.51077047  0.83499272  0.13094332    -0.72400
O22         O  0.55081099  0.70574135  0.14252946    -0.72600
V23         V  0.45795165  0.74591097  0.12820390     1.35200
V24         V  0.52887749  0.76963007  0.13653248     1.35200
C25         C  0.52283775  0.67066061  0.13667490     0.76800
C26         C  0.46639912  0.84572569  0.12790338     0.76900
C27         C  0.50900145  0.75489337  0.07320811     0.76800
C28         C  0.47527481  0.75880886  0.19131007     0.76700
O29         O  0.40892966  0.22426131  0.88606276    -0.72400
O30         O  0.44322556  0.09042252  0.88745004    -0.72600
O31         O  0.44140856  0.15963301  0.84354027    -0.72500
O32         O  0.41227865  0.15387466  0.93051205    -0.72500
O33         O  0.33714787  0.13447967  0.92010760    -0.72400
O34         O  0.36660493  0.14052244  0.83188697    -0.72500
O35         O  0.36834701  0.07125660  0.87645143    -0.72400
O36         O  0.33427219  0.20367872  0.87496910    -0.72600
V37         V  0.42490886  0.15684213  0.88673766     1.35200
V38         V  0.35297880  0.13801368  0.87609543     1.35200
C39         C  0.36543274  0.23643701  0.87993945     0.76800
C40         C  0.41162628  0.05807013  0.88164721     0.76900
C41         C  0.40960531  0.14998590  0.82290989     0.76800
C42         C  0.37062242  0.14169118  0.94029481     0.76700
O43         O  0.48983555  0.69192543  0.87794199    -0.72400
O44         O  0.44028779  0.82132540  0.88328154    -0.72600
O45         O  0.45372858  0.75763213  0.83679133    -0.72500
O46         O  0.47457224  0.75556062  0.92443044    -0.72500
O47         O  0.54943565  0.77881910  0.91865367    -0.72400
O48         O  0.52449213  0.79099004  0.82966531    -0.72500
O49         O  0.51437945  0.84863459  0.88026252    -0.72400
O50         O  0.56125946  0.72211931  0.86778279    -0.72600
V51         V  0.46601853  0.75710849  0.88048964     1.35200
V52         V  0.53607002  0.78459045  0.87419209     1.35200
C53         C  0.53445173  0.68548134  0.87159802     0.76800
C54         C  0.46951198  0.85697430  0.88323727     0.76900
C55         C  0.48434803  0.77606184  0.81822115     0.76800
C56         C  0.51528452  0.76548100  0.93681526     0.76700
O57         O  0.40846817  0.70612288  0.62336848    -0.72400
O58         O  0.44977808  0.83860917  0.62258198    -0.72600
O59         O  0.44748063  0.76755561  0.66617879    -0.72500
O60         O  0.41222211  0.77748684  0.58002012    -0.72500
O61         O  0.33731910  0.79333378  0.59276160    -0.72400
O62         O  0.37739161  0.79705336  0.67915426    -0.72500
O63         O  0.37539994  0.86066913  0.63117288    -0.72400
O64         O  0.33824197  0.72963216  0.64112925    -0.72600
V65         V  0.42817089  0.77276153  0.62327926     1.35200
V66         V  0.35839671  0.79463221  0.63585386     1.35200
C67         C  0.36624751  0.69558780  0.63322248     0.76800
C68         C  0.41904937  0.87246787  0.62572070     0.76900
C69         C  0.41909168  0.78197292  0.68755149     0.76800
C70         C  0.36907494  0.78699299  0.57162348     0.76700
O71         O  0.48268477  0.24336431  0.63440041    -0.72400
O72         O  0.43961519  0.11229555  0.62247434    -0.72600
O73         O  0.44134177  0.17477610  0.67084991    -0.72500
O74         O  0.47908022  0.18124448  0.58549013    -0.72500
O75         O  0.55118405  0.15423152  0.59723795    -0.72400
O76         O  0.51309528  0.14905532  0.68419689    -0.72500
O77         O  0.51184347  0.08716359  0.63545905    -0.72400
O78         O  0.55426347  0.21555929  0.64695490    -0.72600
V79         V  0.46208717  0.17740895  0.62848417     1.35200
V80         V  0.53123755  0.15209309  0.64065189     1.35200
C81         C  0.52611608  0.25119940  0.64343870     0.76800
C82         C  0.46863542  0.07733060  0.62756978     0.76900
C83         C  0.47038833  0.16148009  0.69227807     0.76800
C84         C  0.52099941  0.16886555  0.57651871     0.76700
O85         O  0.40354316  0.69219012  0.38751382    -0.72400
O86         O  0.44434910  0.82496113  0.38615942    -0.72600
O87         O  0.40710861  0.76496566  0.42972491    -0.72500
O88         O  0.44215233  0.75234144  0.34400804    -0.72500
O89         O  0.37062059  0.77793277  0.32995259    -0.72400
O90         O  0.33289430  0.78376252  0.41642136    -0.72500
O91         O  0.37040105  0.84639774  0.37464849    -0.72400
O92         O  0.33196654  0.71517351  0.37131749    -0.72600
V93         V  0.42289942  0.75897376  0.38663173     1.35200
V94         V  0.35286353  0.78024010  0.37333328     1.35200
C95         C  0.36050785  0.68136564  0.37912298     0.76800
C96         C  0.41392427  0.85841245  0.38025369     0.76900
C97         C  0.36447133  0.77654235  0.43778554     0.76800
C98         C  0.41275827  0.76364025  0.32220384     0.76700
O99         O  0.47838978  0.22747189  0.38672563    -0.72400
O100        O  0.43791762  0.09489229  0.39208761    -0.72600
O101        O  0.47529157  0.16109167  0.43275588    -0.72500
O102        O  0.43994550  0.16177161  0.34640352    -0.72500
O103        O  0.51151025  0.13540429  0.33385980    -0.72400
O104        O  0.54938430  0.14081157  0.42110309    -0.72500
O105        O  0.51208297  0.07227644  0.38234089    -0.72400
O106        O  0.54999586  0.20300578  0.37206018    -0.72600
V107        V  0.45928538  0.16075939  0.38930949     1.35200
V108        V  0.52935812  0.13827943  0.37760279     1.35200
C109        C  0.52136414  0.23744014  0.37805222     0.76800
C110        C  0.46840586  0.06104634  0.38797570     0.76900
C111        C  0.51840997  0.15263508  0.44179841     0.76800
C112        C  0.46906797  0.14840509  0.32523858     0.76700
O113        O  0.21643455  0.41451690  0.12863430    -0.72400
O114        O  0.08671160  0.46400755  0.12085753    -0.72600
O115        O  0.15224166  0.45742794  0.16787175    -0.72500
O116        O  0.15134268  0.42268191  0.08188150    -0.72500
O117        O  0.12707744  0.34992095  0.09319056    -0.72400
O118        O  0.11782334  0.38918006  0.17990310    -0.72500
O119        O  0.05851557  0.39152942  0.12917313    -0.72400
O120        O  0.18595988  0.34584708  0.14423453    -0.72600
V121        V  0.15109572  0.43832644  0.12503058     1.35200
V122        V  0.12293146  0.37041276  0.13645503     1.35200
C123        C  0.22285812  0.37143848  0.13813034     0.76800
C124        C  0.05057360  0.43554699  0.12317089     0.76900
C125        C  0.13353477  0.43044836  0.18859402     0.76800
C126        C  0.14083692  0.38044952  0.07265522     0.76700
O127        O  0.68113905  0.49424992  0.13269959    -0.72400
O128        O  0.81539174  0.45915757  0.12743587    -0.72600
O129        O  0.74746200  0.45592126  0.17293678    -0.72500
O130        O  0.74891007  0.49637477  0.08748540    -0.72500
O131        O  0.76617416  0.56999273  0.10182930    -0.72400
O132        O  0.77253933  0.52721807  0.18715576    -0.72500
O133        O  0.83556267  0.53292239  0.13918919    -0.72400
O134        O  0.70309657  0.56506385  0.15012651    -0.72600
V135        V  0.74862132  0.47773384  0.13043912     1.35200
V136        V  0.76887493  0.54737629  0.14433389     1.35200
C137        C  0.66960464  0.53590955  0.14253557     0.76800
C138        C  0.84845302  0.49051388  0.13215590     0.76900
C139        C  0.76073011  0.48433301  0.19465175     0.76800
C140        C  0.75747101  0.53988573  0.08007829     0.76700
O141        O  0.21967551  0.42388170  0.88330763    -0.72400
O142        O  0.08592736  0.46297815  0.88731648    -0.72600
O143        O  0.15150560  0.42790577  0.92827813    -0.72500
O144        O  0.15430149  0.46096652  0.84187608    -0.72500
O145        O  0.12605762  0.39013071  0.82963073    -0.72400
O146        O  0.13446191  0.35314025  0.91697886    -0.72500
O147        O  0.06423644  0.38851301  0.87877245    -0.72400
O148        O  0.19559437  0.35288546  0.86752606    -0.72600
V149        V  0.15238580  0.44259980  0.88489070     1.35200
V150        V  0.13046315  0.37253837  0.87339278     1.35200
C151        C  0.22999833  0.38120226  0.87465312     0.76800
C152        C  0.05228549  0.43170018  0.88432362     0.76900
C153        C  0.14495455  0.38494760  0.93752819     0.76800
C154        C  0.14004725  0.43189757  0.82079984     0.76700
O155        O  0.68491156  0.50344429  0.88904968    -0.72400
O156        O  0.81451019  0.45579850  0.90161806    -0.72600
O157        O  0.74667579  0.49879273  0.93838100    -0.72500
O158        O  0.75226980  0.45969872  0.85296015    -0.72500
O159        O  0.78614069  0.52810516  0.84066395    -0.72400
O160        O  0.77279590  0.57063404  0.92574581    -0.72500
O161        O  0.84284056  0.52792054  0.89209441    -0.72400
O162        O  0.71589008  0.57194460  0.87358929    -0.72600
V163        V  0.75016889  0.48076233  0.89540932     1.35200
V164        V  0.77867405  0.54835445  0.88330787     1.35200
C165        C  0.67882676  0.54571540  0.87805501     0.76800
C166        C  0.85067930  0.48406212  0.89857780     0.76900
C167        C  0.75803713  0.54130277  0.94661865     0.76800
C168        C  0.77158670  0.48639858  0.83230486     0.76700
O169        O  0.68064473  0.43303736  0.64029191    -0.72400
O170        O  0.81383452  0.47545806  0.63616994    -0.72600
O171        O  0.74640420  0.44609995  0.59432618    -0.72500
O172        O  0.74850553  0.46430039  0.68217394    -0.72500
O173        O  0.77955830  0.39273290  0.68885799    -0.72400
O174        O  0.76328716  0.37004816  0.60011248    -0.72500
O175        O  0.83668617  0.40029221  0.63817086    -0.72400
O176        O  0.70679284  0.36069708  0.65137069    -0.72600
V177        V  0.74770548  0.45333867  0.63835252     1.35200
V178        V  0.77109870  0.38223359  0.64447222     1.35200
C179        C  0.67146705  0.38916702  0.64709302     0.76800
C180        C  0.84799874  0.44452708  0.63672100     0.76900
C181        C  0.75187143  0.40504209  0.58202259     0.76800
C182        C  0.76720773  0.43326200  0.70039698     0.76700
O183        O  0.21922438  0.50642845  0.62602197    -0.72400
O184        O  0.08556867  0.46577468  0.62548381    -0.72600
O185        O  0.14791495  0.50029020  0.58228555    -0.72500
O186        O  0.15656458  0.46996894  0.66908881    -0.72500
O187        O  0.13015895  0.54154022  0.68103240    -0.72400
O188        O  0.12864805  0.57473733  0.59296724    -0.72500
O189        O  0.06359077  0.54005827  0.63430788    -0.72400
O190        O  0.19530448  0.57822057  0.63991951    -0.72600
V191        V  0.15199463  0.48704538  0.62592721     1.35200
V192        V  0.13006486  0.55727674  0.63688221     1.35200
C193        C  0.22962608  0.54975689  0.63330895     0.76800
C194        C  0.05186833  0.49660830  0.62928116     0.76900
C195        C  0.13665298  0.54211106  0.57262054     0.76800
C196        C  0.14349449  0.49962759  0.69000431     0.76700
O197        O  0.66853924  0.42579637  0.38854574    -0.72400
O198        O  0.80092556  0.47042418  0.39055544    -0.72600
O199        O  0.73230015  0.45954840  0.34605167    -0.72500
O200        O  0.73680203  0.43839662  0.43334759    -0.72500
O201        O  0.75440159  0.36270269  0.42655712    -0.72400
O202        O  0.76587982  0.38986286  0.33779566    -0.72500
O203        O  0.82520043  0.39568839  0.38827662    -0.72400
O204        O  0.69532677  0.35456782  0.37568754    -0.72600
V205        V  0.73508117  0.44716426  0.38953935     1.35200
V206        V  0.75961053  0.37687583  0.38219020     1.35200
C207        C  0.65978031  0.38224905  0.38095039     0.76800
C208        C  0.83562358  0.44005812  0.39033898     0.76900
C209        C  0.75107434  0.43030262  0.32698118     0.76800
C210        C  0.74501303  0.39728598  0.44526069     0.76700
O211        O  0.20760917  0.49860513  0.38505169    -0.72400
O212        O  0.07331955  0.45973933  0.38574605    -0.72600
O213        O  0.14439910  0.46154749  0.34220050    -0.72500
O214        O  0.13645124  0.49483570  0.42846343    -0.72500
O215        O  0.11907372  0.56933812  0.41631607    -0.72400
O216        O  0.11830269  0.53277305  0.32887363    -0.72500
O217        O  0.05253384  0.53390752  0.37552141    -0.72400
O218        O  0.18466089  0.56994490  0.36910980    -0.72600
V219        V  0.14013896  0.48007788  0.38509344     1.35200
V220        V  0.11920352  0.55014433  0.37269557     1.35200
C221        C  0.21857385  0.54124331  0.37643300     0.76800
C222        C  0.03995488  0.49078116  0.38096520     0.76900
C223        C  0.13079397  0.49030144  0.32072754     0.76800
C224        C  0.12623236  0.53721370  0.43730478     0.76700
C225        C  0.88736703  0.45533390  0.39060308    -0.06700
C226        C  0.90167175  0.49275654  0.37028947    -0.17900
C227        C  0.95111194  0.50399481  0.36579214     0.10500
C228        C  0.98738769  0.47794143  0.38270925    -0.06700
C229        C  0.97288684  0.44043453  0.40298528    -0.17900
C230        C  0.92358268  0.42927341  0.40734308     0.10500
S231        S  0.96705313  0.54922501  0.33664920    -0.32900
S232        S  0.90916149  0.38259845  0.43554787    -0.32900
H233        H  0.86647164  0.40528569  0.44626231     0.28500
H234        H  0.91969974  0.55772840  0.32505449     0.28500
H235        H  0.87398431  0.51181072  0.35685886     0.19100
H236        H  0.00011117  0.42043313  0.41625528     0.19100
C237        C  0.12939669  0.54949279  0.53826106    -0.06700
C238        C  0.09912440  0.51566599  0.52319593    -0.17900
C239        C  0.09426752  0.51440054  0.49049369     0.10500
C240        C  0.12143477  0.54666682  0.47158494    -0.06700
C241        C  0.14947028  0.58281120  0.48644463    -0.17900
C242        C  0.15375034  0.58471951  0.51963804     0.10500
S243        S  0.05298483  0.47008474  0.47415512    -0.32900
S244        S  0.19285810  0.63107848  0.53594997    -0.32900
H245        H  0.20072191  0.61026676  0.56568066     0.28500
H246        H  0.03793495  0.49972916  0.44893542     0.28500
H247        H  0.07933745  0.48921615  0.53716530     0.19100
H248        H  0.17042766  0.60783764  0.47214118     0.19100
C249        C  0.74497904  0.39927949  0.54733716    -0.06700
C250        C  0.76516902  0.35902053  0.53176243    -0.17900
C251        C  0.76490788  0.35560596  0.49858234     0.10500
C252        C  0.74300154  0.39279326  0.48032406    -0.06700
C253        C  0.71981465  0.43082728  0.49623716    -0.17900
C254        C  0.72062071  0.43487154  0.52888596     0.10500
S255        S  0.79441962  0.30393557  0.48140834    -0.32900
S256        S  0.69093510  0.48821616  0.54427975    -0.32900
H257        H  0.66929309  0.46529569  0.57009104     0.28500
H258        H  0.82188202  0.33134509  0.46000983     0.28500
H259        H  0.78333528  0.33111827  0.54538020     0.19100
H260        H  0.70128676  0.45898179  0.48301727     0.19100
C261        C  0.90008893  0.45884611  0.63588543    -0.06700
C262        C  0.91421736  0.49935248  0.61809282    -0.17900
C263        C  0.96354036  0.51147869  0.61453328     0.10500
C264        C  0.99988959  0.48260995  0.62913454    -0.06700
C265        C  0.98576286  0.44246610  0.64712631    -0.17900
C266        C  0.93654033  0.43112779  0.65138636     0.10500
S267        S  0.97773624  0.56328296  0.59023197    -0.32900
S268        S  0.92274279  0.38333882  0.67902001    -0.32900
H269        H  0.88283492  0.40758035  0.69242558     0.28500
H270        H  0.02102414  0.54394605  0.57791969     0.28500
H271        H  0.88676154  0.52097942  0.60617055     0.19100
H272        H  0.01322175  0.42131949  0.65943552     0.19100
C273        C  0.77587335  0.47011805  0.79898805    -0.06700
C274        C  0.78390056  0.50540514  0.77573202    -0.17900
C275        C  0.78463386  0.49350039  0.74377148     0.10500
C276        C  0.77457125  0.44540520  0.73412222    -0.06700
C277        C  0.76923297  0.40945084  0.75724790    -0.17900
C278        C  0.77089845  0.42100305  0.78945685     0.10500
S279        S  0.80059992  0.54127973  0.71662184    -0.32900
S280        S  0.76787858  0.37111821  0.81685824    -0.32900
H281        H  0.80525673  0.38918764  0.83642176     0.28500
H282        H  0.82910672  0.51128770  0.69731337     0.28500
H283        H  0.78961173  0.54287602  0.78239655     0.19100
H284        H  0.76321319  0.37217475  0.75021730     0.19100
C285        C  0.14263131  0.48375686  0.72374368    -0.06700
C286        C  0.13809185  0.43383309  0.73021276    -0.17900
C287        C  0.13740134  0.41561708  0.76113989     0.10500
C288        C  0.14004417  0.44788319  0.78699299    -0.06700
C289        C  0.14396948  0.49792537  0.78046332    -0.17900
C290        C  0.14601081  0.51597972  0.74950785     0.10500
S291        S  0.13456180  0.35075939  0.76554144    -0.32900
S292        S  0.15532075  0.58020024  0.74475229    -0.32900
H293        H  0.19105656  0.57510515  0.72131324     0.28500
H294        H  0.17347518  0.34872336  0.78717698     0.28500
H295        H  0.13546759  0.40836359  0.71089848     0.19100
H296        H  0.14636121  0.52352912  0.79970486     0.19100
C297        C  0.00020731  0.44440354  0.88805087    -0.06700
C298        C  0.98750694  0.48094613  0.90943665    -0.17900
C299        C  0.93861958  0.49211486  0.91530069     0.10500
C300        C  0.90128607  0.46642988  0.89947179    -0.06700
C301        C  0.91381055  0.42917577  0.87872760    -0.17900
C302        C  0.96257874  0.41864722  0.87228499     0.10500
S303        S  0.92593188  0.53894076  0.94360436    -0.32900
S304        S  0.97393966  0.37501199  0.84161861    -0.32900
H305        H  0.01274586  0.40117786  0.82818309     0.28500
H306        H  0.88152782  0.51864849  0.95352256     0.28500
H307        H  0.01578283  0.50042507  0.92206758     0.19100
H308        H  0.88543444  0.41056581  0.86562202     0.19100
C309        C  0.76092981  0.46891790  0.22819971    -0.06700
C310        C  0.75314116  0.50457941  0.25099821    -0.17900
C311        C  0.75159047  0.49332966  0.28303936     0.10500
C312        C  0.75574875  0.44432723  0.29317847    -0.06700
C313        C  0.76426652  0.40853783  0.27035902    -0.17900
C314        C  0.76780505  0.42035587  0.23820465     0.10500
S315        S  0.74627499  0.54429886  0.30933489    -0.32900
S316        S  0.78336386  0.37220302  0.21151179    -0.32900
H317        H  0.81577185  0.40057406  0.19362223     0.28500
H318        H  0.78543633  0.52942483  0.32861620     0.28500
H319        H  0.74847432  0.54201164  0.24383462     0.19100
H320        H  0.76867573  0.37113102  0.27758110     0.19100
C321        C  0.75476815  0.55488208  0.98015515    -0.06700
C322        C  0.79765601  0.56651129  0.99665630    -0.17900
C323        C  0.79887846  0.56609027  0.02974297     0.10500
C324        C  0.75623156  0.55401924  0.04659981    -0.06700
C325        C  0.71257737  0.54642227  0.03004872    -0.17900
C326        C  0.71133523  0.54729625  0.99713070     0.10500
S327        S  0.85708634  0.57452360  0.04883303    -0.32900
S328        S  0.65365813  0.53668543  0.97791432    -0.32900
H329        H  0.66473861  0.56534860  0.95144316     0.28500
H330        H  0.83882992  0.60179156  0.07402944     0.28500
H331        H  0.83108680  0.57254971  0.98381555     0.19100
H332        H  0.67962570  0.53760169  0.04284855     0.19100
C333        C  0.12958608  0.47433411  0.28701793    -0.06700
C334        C  0.13179666  0.50939755  0.26302982    -0.17900
C335        C  0.13153200  0.49647242  0.23101629     0.10500
C336        C  0.13069435  0.44682680  0.22213943    -0.06700
C337        C  0.12788930  0.41183479  0.24610487    -0.17900
C338        C  0.12646412  0.42481435  0.27805904     0.10500
S339        S  0.13019481  0.54555988  0.20292357    -0.32900
S340        S  0.11844654  0.37605630  0.30588891    -0.32900
H341        H  0.08185568  0.40010169  0.32290757     0.28500
H342        H  0.09374412  0.52423450  0.18404001     0.28500
H343        H  0.13338972  0.54744728  0.26921668     0.19100
H344        H  0.12649488  0.37376672  0.23993196     0.19100
C345        C  0.14695246  0.36947678  0.03852152    -0.06700
C346        C  0.18306941  0.39621701  0.02298691    -0.17900
C347        C  0.18529620  0.39887372  0.99029731     0.10500
C348        C  0.15037311  0.37388900  0.97169488    -0.08300
C349        C  0.11716980  0.34283617  0.98697137    -0.17900
C350        C  0.11545442  0.33997736  0.02020985     0.10500
S351        S  0.23277342  0.43724600  0.97459347    -0.32900
S352        S  0.07035270  0.30112704  0.03764956    -0.32900
H353        H  0.10345846  0.27988849  0.05897696     0.28500
H354        H  0.23544476  0.41493076  0.94523619     0.28500
H355        H  0.20897901  0.41743885  0.03661616     0.19100
H356        H  0.09075849  0.32272472  0.97308197     0.19100
C357        C  0.99989820  0.45297382  0.12102510    -0.06700
C358        C  0.98722861  0.49401046  0.13842705    -0.17900
C359        C  0.93841707  0.50628488  0.14325867     0.10500
C360        C  0.90085963  0.47827215  0.12904755    -0.06700
C361        C  0.91386987  0.43821002  0.11057808    -0.17900
C362        C  0.96272081  0.42538693  0.10638847     0.10500
S363        S  0.92710675  0.55538613  0.17016649    -0.32900
S364        S  0.97525644  0.37382802  0.08171772    -0.32900
H365        H  0.02023347  0.39134401  0.07065865     0.28500
H366        H  0.89135737  0.52988743  0.18720884     0.28500
H367        H  0.01543523  0.51465325  0.15031976     0.19100
H368        H  0.88584777  0.41682555  0.09909183     0.19100
C369        C  0.61012328  0.36202258  0.37810294    -0.06700
C370        C  0.59805014  0.33990533  0.34935604    -0.17900
C371        C  0.56299815  0.30315663  0.34782794     0.10500
C372        C  0.53994185  0.28745433  0.37569560    -0.06700
C373        C  0.54730446  0.31372208  0.40361507    -0.17900
C374        C  0.58197937  0.35118737  0.40503076     0.10500
S375        S  0.55290911  0.27395619  0.31033919    -0.32900
S376        S  0.59411651  0.37839272  0.44281673    -0.32900
H377        H  0.60448652  0.42457209  0.43053052     0.28500
H378        H  0.50629922  0.25591898  0.31756855     0.28500
H379        H  0.61918795  0.34824053  0.32848666     0.19100
H380        H  0.52976259  0.30183517  0.42515123     0.19100
C381        C  0.26904699  0.55940217  0.37505779    -0.06700
C382        C  0.29372317  0.56895738  0.40346137    -0.17900
C383        C  0.33072556  0.60420887  0.40482355     0.10500
C384        C  0.34210303  0.63113209  0.37743608    -0.06700
C385        C  0.32197496  0.61672453  0.34848109    -0.17900
C386        C  0.28604767  0.58088524  0.34697813     0.10500
S387        S  0.35733071  0.61759806  0.44269978    -0.32900
S388        S  0.25889812  0.56822209  0.30903651    -0.32900
H389        H  0.24107111  0.52204458  0.31715247     0.28500
H390        H  0.40330852  0.63014659  0.43074637     0.28500
H391        H  0.28098954  0.55251821  0.42514648     0.19100
H392        H  0.33099705  0.63665953  0.32723647     0.19100
C393        C  0.42820577  0.91041879  0.38085018    -0.06700
C394        C  0.46938286  0.92410532  0.39848598    -0.17900
C395        C  0.48220493  0.97288285  0.40216589     0.10500
C396        C  0.45344059  0.00949617  0.38802687    -0.06700
C397        C  0.41242552  0.99602110  0.37028499    -0.17900
C398        C  0.40023407  0.94718666  0.36585368     0.10500
S399        S  0.53455946  0.98615500  0.42633084    -0.32900
S400        S  0.35072011  0.93462786  0.33895556    -0.32900
H401        H  0.37475213  0.89602399  0.32400858     0.28500
H402        H  0.51387569  0.02805937  0.43940756     0.28500
H403        H  0.49116179  0.89671040  0.41023624     0.19100
H404        H  0.39117851  0.02367228  0.35835975     0.19100
C405        C  0.62157363  0.36924645  0.64985864    -0.06700
C406        C  0.61126271  0.34215202  0.67704095    -0.17900
C407        C  0.57361764  0.30799356  0.67725355     0.10500
C408        C  0.54597564  0.29997788  0.64958432    -0.06700
C409        C  0.55115751  0.33207217  0.62418556    -0.17900
C410        C  0.58922280  0.36614075  0.62384848     0.10500
S411        S  0.56577585  0.27185546  0.71237133    -0.32900
S412        S  0.59905354  0.39871536  0.58780234    -0.32900
H413        H  0.64760650  0.38315453  0.58510386     0.28500
H414        H  0.51711581  0.25896532  0.70592078     0.28500
H415        H  0.63520976  0.34472801  0.69736914     0.19100
H416        H  0.52977815  0.32655548  0.60299745     0.19100
C417        C  0.53224650  0.17052126  0.54227198    -0.06700
C418        C  0.55585378  0.13127359  0.52787000    -0.17900
C419        C  0.55627919  0.12622168  0.49480004     0.10500
C420        C  0.53083747  0.16003888  0.47569445    -0.06700
C421        C  0.51092326  0.20111401  0.49015928    -0.17900
C422        C  0.51240088  0.20727644  0.52282131     0.10500
S423        S  0.58631566  0.07406651  0.47887046    -0.32900
S424        S  0.48761389  0.26275617  0.53830572    -0.32900
H425        H  0.51904136  0.26415186  0.56456187     0.28500
H426        H  0.61067413  0.10031104  0.45528860     0.28500
H427        H  0.57184789  0.10307308  0.54244795     0.19100
H428        H  0.49300420  0.22847970  0.47581230     0.19100
C429        C  0.27980646  0.56902903  0.63447683    -0.06700
C430        C  0.29458393  0.59003621  0.66304799    -0.17900
C431        C  0.32884360  0.62755603  0.66372048     0.10500
C432        C  0.34811824  0.64534644  0.63518001    -0.06700
C433        C  0.33838836  0.62016484  0.60713144    -0.17900
C434        C  0.30496761  0.58153022  0.60661474     0.10500
S435        S  0.34298227  0.65462286  0.70133284    -0.32900
S436        S  0.29140367  0.55384642  0.56918493    -0.32900
H437        H  0.27987873  0.50818320  0.58182836     0.28500
H438        H  0.38834284  0.67384887  0.69230684     0.28500
H439        H  0.27594726  0.58028691  0.68465866     0.19100
H440        H  0.35342023  0.63331048  0.58510635     0.19100
C441        C  0.35802558  0.79193954  0.53771439    -0.06700
C442        C  0.32456013  0.76059075  0.52306584    -0.17900
C443        C  0.32248855  0.75665458  0.48999459     0.10500
C444        C  0.35469670  0.78494106  0.47146757    -0.06700
C445        C  0.38468510  0.81924945  0.48628100    -0.17900
C446        C  0.38643794  0.82328937  0.51906634     0.10500
S447        S  0.28015795  0.71301980  0.47379616    -0.32900
S448        S  0.42598671  0.86792429  0.53705141    -0.32900
H449        H  0.44438992  0.88784221  0.50896622     0.28500
H450        H  0.29852018  0.71063497  0.44310646     0.28500
H451        H  0.30232146  0.73682073  0.53741936     0.19100
H452        H  0.40843687  0.84162698  0.47200244     0.19100
C453        C  0.43252289  0.92483833  0.62365442    -0.06700
C454        C  0.39596060  0.95944818  0.62973156    -0.17900
C455        C  0.40617453  0.00913992  0.63094016     0.10500
C456        C  0.45389995  0.02571394  0.62493605    -0.06700
C457        C  0.49020919  0.99145016  0.61804943    -0.17900
C458        C  0.48025544  0.94170445  0.61720553     0.10500
S459        S  0.35749319  0.04878090  0.64272678    -0.32900
S460        S  0.53071521  0.90245018  0.60833823    -0.32900
H461        H  0.50592623  0.87835648  0.58389574     0.28500
H462        H  0.38597607  0.07380871  0.66509701     0.28500
H463        H  0.35918811  0.94778885  0.63487247     0.19100
H464        H  0.52702376  0.00349941  0.61332884     0.19100
C465        C  0.55716811  0.63733882  0.86906276    -0.06700
C466        C  0.58723377  0.62968455  0.84292600    -0.17900
C467        C  0.62341789  0.59427135  0.84352376     0.10500
C468        C  0.63030219  0.56611454  0.87098986    -0.06700
C469        C  0.59544604  0.56839263  0.89503914    -0.17900
C470        C  0.55940096  0.60449022  0.89466836     0.10500
S471        S  0.66242867  0.58933012  0.80955827    -0.32900
S472        S  0.52191356  0.61063286  0.92915781    -0.32900
H473        H  0.52889829  0.66083523  0.93212827     0.28500
H474        H  0.67625302  0.54101827  0.81527798     0.28500
H475        H  0.58506191  0.65402297  0.82286022     0.19100
H476        H  0.59956720  0.54583814  0.91576938     0.19100
C477        C  0.47070976  0.78111816  0.78445608    -0.06700
C478        C  0.42165903  0.79139866  0.77756944    -0.17900
C479        C  0.40353504  0.79117183  0.74670791     0.10500
C480        C  0.43530357  0.78157210  0.72125674    -0.06700
C481        C  0.48475339  0.77184743  0.72820298    -0.17900
C482        C  0.50266325  0.77165002  0.75929560     0.10500
S483        S  0.33905138  0.80139010  0.74214844    -0.32900
S484        S  0.56546378  0.75545198  0.76553282    -0.32900
H485        H  0.57661047  0.79870183  0.78149187     0.28500
H486        H  0.33161264  0.75925922  0.72415934     0.28500
H487        H  0.39659109  0.79847431  0.79666298     0.19100
H488        H  0.50990617  0.76415735  0.70929176     0.19100
C489        C  0.34948679  0.28717503  0.87822700    -0.06700
C490        C  0.33341921  0.30430757  0.84879027    -0.17900
C491        C  0.29925835  0.34179781  0.84662774     0.10500
C492        C  0.28012598  0.36203216  0.87442554    -0.06700
C493        C  0.30109990  0.34920280  0.90354819    -0.17900
C494        C  0.33574598  0.31211947  0.90570495     0.10500
S495        S  0.27732788  0.35864629  0.80799529    -0.32900
S496        S  0.35469185  0.29293729  0.94453796    -0.32900
H497        H  0.40063096  0.27594171  0.93522168     0.28500
H498        H  0.25823519  0.40381062  0.81695196     0.28500
H499        H  0.34399029  0.28539318  0.82754657     0.19100
H500        H  0.28683796  0.36370324  0.92496439     0.19100
C501        C  0.42326071  0.14983082  0.78924489    -0.06700
C502        C  0.39693751  0.17866196  0.76802610    -0.17900
C503        C  0.41231249  0.18469519  0.73678829     0.10500
C504        C  0.45419809  0.15967046  0.72578655    -0.06700
C505        C  0.48006753  0.13034560  0.74717197    -0.17900
C506        C  0.46502046  0.12502020  0.77850412     0.10500
S507        S  0.37833272  0.22734291  0.71314088    -0.32900
S508        S  0.49975594  0.08465107  0.80339781    -0.32900
H509        H  0.45942262  0.06749377  0.82040776     0.28500
H510        H  0.42016386  0.25059622  0.70134102     0.28500
H511        H  0.36550597  0.19862026  0.77628223     0.19100
H512        H  0.51176991  0.11048325  0.73931457     0.19100
C513        C  0.45237754  0.90756640  0.88522897    -0.06700
C514        C  0.41200768  0.92171150  0.86706324    -0.17900
C515        C  0.39869830  0.97053914  0.86451988     0.10500
C516        C  0.42496337  0.00611371  0.88170437    -0.06700
C517        C  0.46478084  0.99164415  0.90025851    -0.17900
C518        C  0.47880111  0.94302982  0.90220000     0.10500
S519        S  0.35049521  0.98504867  0.83705892    -0.32900
S520        S  0.52964003  0.92683093  0.92725433    -0.32900
H521        H  0.54030444  0.97357872  0.93849836     0.28500
H522        H  0.37455561  0.02558829  0.82425713     0.28500
H523        H  0.39242216  0.89489557  0.85330009     0.19100
H524        H  0.48486822  0.01860924  0.91350082     0.19100
C525        C  0.54342263  0.62151589  0.13875667    -0.06700
C526        C  0.56123171  0.60666826  0.16831056    -0.17900
C527        C  0.59892812  0.57276024  0.17073722     0.10500
C528        C  0.61888446  0.55287936  0.14308257    -0.06700
C529        C  0.59676406  0.56275333  0.11394327    -0.17900
C530        C  0.55978793  0.59764441  0.11140551     0.10500
S531        S  0.62377377  0.56022132  0.20936561    -0.32900
S532        S  0.54019293  0.61724713  0.07282690    -0.32900
H533        H  0.56478153  0.58152297  0.05549343     0.28500
H534        H  0.64576934  0.51597178  0.20131572     0.28500
H535        H  0.54920633  0.62518672  0.18938560     0.19100
H536        H  0.61276012  0.54790953  0.09278043     0.19100
C537        C  0.46146277  0.75975960  0.22523240    -0.06700
C538        C  0.41138807  0.75853905  0.23236860    -0.17900
C539        C  0.39458881  0.75789158  0.26340489     0.10500
C540        C  0.42823743  0.76096460  0.28865517    -0.06700
C541        C  0.47842712  0.76196928  0.28164665    -0.17900
C542        C  0.49531621  0.76040398  0.25045624     0.10500
S543        S  0.32988910  0.75039274  0.26882879    -0.32900
S544        S  0.56018119  0.75687200  0.24467581    -0.32900
H545        H  0.55700646  0.71999813  0.22188543     0.28500
H546        H  0.33500268  0.71501254  0.29256527     0.28500
H547        H  0.38465525  0.75715466  0.21351667     0.19100
H548        H  0.50492015  0.76343382  0.30062897     0.19100
C549        C  0.52038293  0.75974586  0.97169991    -0.06700
C550        C  0.48518187  0.73061403  0.98645798    -0.17900
C551        C  0.48234918  0.72615531  0.01905438     0.10500
C552        C  0.51586533  0.75165834  0.03851260    -0.06700
C553        C  0.55360121  0.77794652  0.02395971    -0.17900
C554        C  0.55605852  0.78256236  0.99090177     0.10500
S555        S  0.43339789  0.68805027  0.03328040    -0.32900
S556        S  0.60405850  0.81972942  0.97522086    -0.32900
H557        H  0.57299265  0.84533693  0.95492453     0.28500
H558        H  0.45794611  0.66996023  0.05977217     0.28500
H559        H  0.45853020  0.71117768  0.97238947     0.19100
H560        H  0.57980051  0.79728859  0.03841606     0.19100
C561        C  0.27146421  0.34927406  0.14121333    -0.06700
C562        C  0.29832253  0.34055085  0.11373501    -0.17900
C563        C  0.33407168  0.30418120  0.11303220     0.10500
C564        C  0.34240968  0.27553471  0.14019990    -0.06700
C565        C  0.31946073  0.28828643  0.16846891    -0.17900
C566        C  0.28461589  0.32513570  0.16932339     0.10500
S567        S  0.36273932  0.29164321  0.07584980    -0.32900
S568        S  0.25452645  0.33661903  0.20628490    -0.32900
H569        H  0.24005713  0.38420427  0.19886707     0.28500
H570        H  0.40766105  0.27783010  0.08907069     0.28500
H571        H  0.28831057  0.35885633  0.09200560     0.19100
H572        H  0.32579545  0.26671450  0.18950272     0.19100
C573        C  0.42317869  0.13657762  0.22746770    -0.06700
C574        C  0.39475159  0.16261481  0.24880753    -0.17900
C575        C  0.40962800  0.16892229  0.28022573     0.10500
C576        C  0.45323735  0.14673810  0.29142570    -0.06700
C577        C  0.48126332  0.12011319  0.26989585    -0.17900
C578        C  0.46677773  0.11476333  0.23832280     0.10500
S579        S  0.37246128  0.20831330  0.30385004    -0.32900
S580        S  0.50480047  0.07830384  0.21324744    -0.32900
H581        H  0.46622777  0.05924553  0.19516012     0.28500
H582        H  0.41238161  0.23515426  0.31539068     0.28500
H583        H  0.36187402  0.18042125  0.24050103     0.19100
H584        H  0.51441848  0.10244402  0.27778303     0.19100
C585        C  0.36343416  0.13402875  0.97458989    -0.06700
C586        C  0.32656814  0.15867816  0.99092199    -0.17900
C587        C  0.32540732  0.15883157  0.02420541     0.10500
C588        C  0.36192159  0.13359332  0.04139436    -0.06700
C589        C  0.39666517  0.10681171  0.02479594    -0.17900
C590        C  0.39726932  0.10605575  0.99195499     0.10500
S591        S  0.27820515  0.19398619  0.04274851    -0.32900
S592        S  0.44222083  0.06823180  0.97344779    -0.32900
H593        H  0.41087925  0.05359792  0.94893525     0.28500
H594        H  0.30237358  0.20276817  0.07136668     0.28500
H595        H  0.30026640  0.18001838  0.97781537     0.19100
H596        H  0.42409166  0.08642937  0.03763414     0.19100
C597        C  0.42801666  0.99676879  0.13218785    -0.06700
C598        C  0.46759840  0.98199775  0.11372804    -0.17900
C599        C  0.47968275  0.93286893  0.11075309     0.10500
C600        C  0.45176564  0.89724626  0.12666065    -0.06700
C601        C  0.41229130  0.91193529  0.14504437    -0.17900
C602        C  0.40097631  0.96099141  0.14868462     0.10500
S603        S  0.53020110  0.91801402  0.08551038    -0.32900
S604        S  0.35407275  0.97528036  0.17677195    -0.32900
H605        H  0.37950811  0.01473768  0.18995103     0.28500
H606        H  0.51011769  0.87428644  0.07439883     0.28500
H607        H  0.48859820  0.00874999  0.10090628     0.19100
H608        H  0.39180116  0.88514342  0.15819667     0.19100
loop_ 
_geom_bond_atom_site_label_1 
_geom_bond_atom_site_label_2 
_geom_bond_distance 
_geom_bond_site_symmetry_2 
_ccdc_geom_bond_type 
O1            V9   1.920       .  S
O1           C11   1.268       .  A
O2            V9   1.916       .  S
O2           C12   1.269       .  A
O3            V9   1.889       .  S
O3           C13   1.262       .  A
O4            V9   1.893       .  S
O4           C14   1.261       .  A
O5           V10   1.918       .  S
O5           C14   1.269       .  A
O6           V10   1.921       .  S
O6           C13   1.269       .  A
O7           V10   1.887       .  S
O7           C12   1.261       .  A
O8           V10   1.884       .  S
O8           C11   1.260       .  A
V9           V10   2.086       .  T
C11         C564   1.476       .  S
C12         C597   1.486   1_545  S
C13         C588   1.482       .  S
C14         C573   1.482       .  S
O15          V23   1.923       .  S
O15          C25   1.269       .  A
O16          V23   1.915       .  S
O16          C26   1.270       .  A
O17          V23   1.877       .  S
O17          C27   1.258       .  A
O18          V23   1.880       .  S
O18          C28   1.260       .  A
O19          V24   1.923       .  S
O19          C28   1.271       .  A
O20          V24   1.925       .  S
O20          C27   1.271       .  A
O21          V24   1.886       .  S
O21          C26   1.259       .  A
O22          V24   1.881       .  S
O22          C25   1.259       .  A
V23          V24   2.081       .  T
C25         C525   1.473       .  S
C26         C600   1.479       .  S
C27         C552   1.488       .  S
C28         C537   1.490       .  S
O29          V37   1.913       .  S
O29          C39   1.266       .  A
O30          V37   1.902       .  S
O30          C40   1.267       .  A
O31          V37   1.891       .  S
O31          C41   1.261       .  A
O32          V37   1.892       .  S
O32          C42   1.263       .  A
O33          V38   1.921       .  S
O33          C42   1.268       .  A
O34          V38   1.915       .  S
O34          C41   1.268       .  A
O35          V38   1.891       .  S
O35          C40   1.261       .  A
O36          V38   1.885       .  S
O36          C39   1.261       .  A
V37          V38   2.087       .  T
C39         C489   1.469       .  S
C40         C516   1.481       .  S
C41         C501   1.478       .  S
C42         C585   1.484       .  S
O43          V51   1.919       .  S
O43          C53   1.268       .  A
O44          V51   1.913       .  S
O44          C54   1.268       .  A
O45          V51   1.882       .  S
O45          C55   1.260       .  A
O46          V51   1.878       .  S
O46          C56   1.262       .  A
O47          V52   1.926       .  S
O47          C56   1.270       .  A
O48          V52   1.921       .  S
O48          C55   1.270       .  A
O49          V52   1.885       .  S
O49          C54   1.260       .  A
O50          V52   1.880       .  S
O50          C53   1.260       .  A
V51          V52   2.083       .  T
C53         C465   1.473       .  S
C54         C513   1.477       .  S
C55         C477   1.485       .  S
C56         C549   1.494       .  S
O57          V65   1.916       .  S
O57          C67   1.267       .  A
O58          V65   1.911       .  S
O58          C68   1.268       .  A
O59          V65   1.898       .  S
O59          C69   1.264       .  A
O60          V65   1.888       .  S
O60          C70   1.262       .  A
O61          V66   1.915       .  S
O61          C70   1.266       .  A
O62          V66   1.908       .  S
O62          C69   1.267       .  A
O63          V66   1.891       .  S
O63          C68   1.263       .  A
O64          V66   1.890       .  S
O64          C67   1.262       .  A
V65          V66   2.081       .  T
C67         C432   1.475       .  S
C68         C453   1.494       .  S
C69         C480   1.495       .  S
C70         C441   1.474       .  S
O71          V79   1.922       .  S
O71          C81   1.268       .  A
O72          V79   1.916       .  S
O72          C82   1.270       .  A
O73          V79   1.889       .  S
O73          C83   1.260       .  A
O74          V79   1.888       .  S
O74          C84   1.261       .  A
O75          V80   1.925       .  S
O75          C84   1.270       .  A
O76          V80   1.917       .  S
O76          C83   1.271       .  A
O77          V80   1.882       .  S
O77          C82   1.260       .  A
O78          V80   1.880       .  S
O78          C81   1.260       .  A
V79          V80   2.085       .  T
C81         C408   1.475       .  S
C82         C456   1.485       .  S
C83         C504   1.492       .  S
C84         C417   1.487       .  S
O85          V93   1.918       .  S
O85          C95   1.267       .  A
O86          V93   1.913       .  S
O86          C96   1.269       .  A
O87          V93   1.889       .  S
O87          C97   1.262       .  A
O88          V93   1.896       .  S
O88          C98   1.263       .  A
O89          V94   1.907       .  S
O89          C98   1.268       .  A
O90          V94   1.914       .  S
O90          C97   1.266       .  A
O91          V94   1.888       .  S
O91          C96   1.260       .  A
O92          V94   1.886       .  S
O92          C95   1.262       .  A
V93          V94   2.085       .  T
C95         C384   1.477       .  S
C96         C393   1.488       .  S
C97         C444   1.474       .  S
C98         C540   1.489       .  S
O99         V107   1.917       .  S
O99         C109   1.267       .  A
O100        V107   1.913       .  S
O100        C110   1.268       .  A
O101        V107   1.892       .  S
O101        C111   1.264       .  A
O102        V107   1.893       .  S
O102        C112   1.261       .  A
O103        V108   1.918       .  S
O103        C112   1.271       .  A
O104        V108   1.924       .  S
O104        C111   1.269       .  A
O105        V108   1.892       .  S
O105        C110   1.261       .  A
O106        V108   1.888       .  S
O106        C109   1.261       .  A
V107        V108   2.084       .  T
C109        C372   1.474       .  S
C110        C396   1.480       .  S
C111        C420   1.490       .  S
C112        C576   1.497       .  S
O113        V121   1.916       .  S
O113        C123   1.267       .  A
O114        V121   1.912       .  S
O114        C124   1.268       .  A
O115        V121   1.894       .  S
O115        C125   1.261       .  A
O116        V121   1.882       .  S
O116        C126   1.263       .  A
O117        V122   1.926       .  S
O117        C126   1.269       .  A
O118        V122   1.922       .  S
O118        C125   1.272       .  A
O119        V122   1.886       .  S
O119        C124   1.260       .  A
O120        V122   1.886       .  S
O120        C123   1.261       .  A
V121        V122   2.083       .  T
C123        C561   1.473       .  S
C124        C357   1.474   1_455  S
C125        C336   1.497       .  S
C126        C345   1.490       .  S
O127        V135   1.911       .  S
O127        C137   1.266       .  A
O128        V135   1.908       .  S
O128        C138   1.268       .  A
O129        V135   1.900       .  S
O129        C139   1.263       .  A
O130        V135   1.892       .  S
O130        C140   1.263       .  A
O131        V136   1.908       .  S
O131        C140   1.265       .  A
O132        V136   1.901       .  S
O132        C139   1.267       .  A
O133        V136   1.887       .  S
O133        C138   1.260       .  A
O134        V136   1.888       .  S
O134        C137   1.261       .  A
V135        V136   2.086       .  T
C137        C528   1.470       .  S
C138        C360   1.484       .  S
C139        C309   1.484       .  S
C140        C324   1.472       .  S
O141        V149   1.920       .  S
O141        C151   1.268       .  A
O142        V149   1.913       .  S
O142        C152   1.269       .  A
O143        V149   1.884       .  S
O143        C153   1.261       .  A
O144        V149   1.893       .  S
O144        C154   1.263       .  A
O145        V150   1.921       .  S
O145        C154   1.271       .  A
O146        V150   1.926       .  S
O146        C153   1.270       .  A
O147        V150   1.886       .  S
O147        C152   1.260       .  A
O148        V150   1.886       .  S
O148        C151   1.261       .  A
V149        V150   2.083       .  T
C151        C492   1.475       .  S
C152        C297   1.481       .  S
C153        C348   1.487       .  S
C154        C288   1.499       .  S
O155        V163   1.915       .  S
O155        C165   1.266       .  A
O156        V163   1.913       .  S
O156        C166   1.268       .  A
O157        V163   1.894       .  S
O157        C167   1.263       .  A
O158        V163   1.895       .  S
O158        C168   1.262       .  A
O159        V164   1.907       .  S
O159        C168   1.269       .  A
O160        V164   1.912       .  S
O160        C167   1.266       .  A
O161        V164   1.885       .  S
O161        C166   1.259       .  A
O162        V164   1.886       .  S
O162        C165   1.262       .  A
V163        V164   2.086       .  T
C165        C468   1.476       .  S
C166        C300   1.472       .  S
C167        C321   1.475       .  S
C168        C273   1.489       .  S
O169        V177   1.925       .  S
O169        C179   1.269       .  A
O170        V177   1.916       .  S
O170        C180   1.269       .  A
O171        V177   1.879       .  S
O171        C181   1.258       .  A
O172        V177   1.884       .  S
O172        C182   1.260       .  A
O173        V178   1.919       .  S
O173        C182   1.270       .  A
O174        V178   1.923       .  S
O174        C181   1.271       .  A
O175        V178   1.887       .  S
O175        C180   1.261       .  A
O176        V178   1.885       .  S
O176        C179   1.261       .  A
V177        V178   2.081       .  T
C179        C405   1.480       .  S
C180        C261   1.483       .  S
C181        C249   1.491       .  S
C182        C276   1.483       .  S
O183        V191   1.920       .  S
O183        C193   1.268       .  A
O184        V191   1.914       .  S
O184        C194   1.269       .  A
O185        V191   1.889       .  S
O185        C195   1.262       .  A
O186        V191   1.893       .  S
O186        C196   1.263       .  A
O187        V192   1.921       .  S
O187        C196   1.271       .  A
O188        V192   1.923       .  S
O188        C195   1.269       .  A
O189        V192   1.887       .  S
O189        C194   1.260       .  A
O190        V192   1.884       .  S
O190        C193   1.261       .  A
V191        V192   2.085       .  T
C193        C429   1.476       .  S
C194        C264   1.477   1_455  S
C195        C237   1.484       .  S
C196        C285   1.496       .  S
O197        V205   1.918       .  S
O197        C207   1.267       .  A
O198        V205   1.917       .  S
O198        C208   1.270       .  A
O199        V205   1.876       .  S
O199        C209   1.257       .  A
O200        V205   1.874       .  S
O200        C210   1.261       .  A
O201        V206   1.927       .  S
O201        C210   1.270       .  A
O202        V206   1.925       .  S
O202        C209   1.272       .  A
O203        V206   1.889       .  S
O203        C208   1.260       .  A
O204        V206   1.886       .  S
O204        C207   1.261       .  A
V205        V206   2.079       .  T
C207        C369   1.476       .  S
C208        C225   1.480       .  S
C209        C312   1.490       .  S
C210        C252   1.494       .  S
O211        V219   1.920       .  S
O211        C221   1.268       .  A
O212        V219   1.917       .  S
O212        C222   1.270       .  A
O213        V219   1.896       .  S
O213        C223   1.262       .  A
O214        V219   1.889       .  S
O214        C224   1.262       .  A
O215        V220   1.926       .  S
O215        C224   1.270       .  A
O216        V220   1.921       .  S
O216        C223   1.271       .  A
O217        V220   1.887       .  S
O217        C222   1.260       .  A
O218        V220   1.883       .  S
O218        C221   1.260       .  A
V219        V220   2.084       .  T
C221        C381   1.473       .  S
C222        C228   1.487   1_455  S
C223        C333   1.498       .  S
C224        C240   1.485       .  S
C225        C226   1.400       .  A
C225        C230   1.415       .  A
C226        C227   1.405       .  A
C226        H235   1.083       .  S
C227        C228   1.420       .  A
C227        S231   1.809       .  S
C228        C229   1.403       .  A
C229        C230   1.400       .  A
C229        H236   1.084   1_655  S
C230        S232   1.801       .  S
S231        H234   1.407       .  S
S232        H233   1.407       .  S
C237        C238   1.402       .  A
C237        C242   1.420       .  A
C238        C239   1.393       .  A
C238        H247   1.086       .  S
C239        C240   1.412       .  A
C239        S243   1.803       .  S
C240        C241   1.407       .  A
C241        C242   1.413       .  A
C241        H248   1.085       .  S
C242        S244   1.805       .  S
S243        H246   1.406       .  S
S244        H245   1.400       .  S
C249        C250   1.410       .  A
C249        C254   1.420       .  A
C250        C251   1.411       .  A
C250        H259   1.082       .  S
C251        C252   1.417       .  A
C251        S255   1.799       .  S
C252        C253   1.405       .  A
C253        C254   1.390       .  A
C253        H260   1.083       .  S
C254        S256   1.809       .  S
S255        H258   1.402       .  S
S256        H257   1.398       .  S
C261        C262   1.403       .  A
C261        C266   1.418       .  A
C262        C263   1.402       .  A
C262        H271   1.084       .  S
C263        C264   1.417       .  A
C263        S267   1.804       .  S
C264        C265   1.399       .  A
C265        C266   1.398       .  A
C265        H272   1.085   1_655  S
C266        S268   1.803       .  S
S267        H270   1.407   1_655  S
S268        H269   1.408       .  S
C273        C274   1.402       .  A
C273        C278   1.422       .  A
C274        C275   1.396       .  A
C274        H283   1.084       .  S
C275        C276   1.416       .  A
C275        S279   1.804       .  S
C276        C277   1.402       .  A
C277        C278   1.404       .  A
C277        H284   1.084       .  S
C278        S280   1.802       .  S
S279        H282   1.407       .  S
S280        H281   1.407       .  S
C285        C286   1.410       .  A
C285        C290   1.413       .  A
C286        C287   1.404       .  A
C286        H295   1.083       .  S
C287        C288   1.416       .  A
C287        S291   1.801       .  S
C288        C289   1.412       .  A
C289        C290   1.405       .  A
C289        H296   1.083       .  S
C290        S292   1.801       .  S
S291        H294   1.405       .  S
S292        H293   1.408       .  S
C297        C298   1.404   1_455  A
C297        C302   1.418   1_455  A
C298        C299   1.401       .  A
C298        H307   1.083   1_655  S
C299        C300   1.413       .  A
C299        S303   1.802       .  S
C300        C301   1.400       .  A
C301        C302   1.398       .  A
C301        H308   1.084       .  S
C302        S304   1.804       .  S
S303        H306   1.406       .  S
S304        H305   1.408   1_655  S
C309        C310   1.399       .  A
C309        C314   1.418       .  A
C310        C311   1.394       .  A
C310        H319   1.084       .  S
C311        C312   1.423       .  A
C311        S315   1.804       .  S
C312        C313   1.406       .  A
C313        C314   1.405       .  A
C313        H320   1.083       .  S
C314        S316   1.802       .  S
S315        H318   1.408       .  S
S316        H317   1.408       .  S
C321        C322   1.403       .  A
C321        C326   1.411       .  A
C322        C323   1.404   1_556  A
C322        H331   1.082       .  S
C323        C324   1.414       .  A
C323        S327   1.802       .  S
C324        C325   1.401       .  A
C325        C326   1.397   1_554  A
C325        H332   1.084       .  S
C326        S328   1.800       .  S
S327        H330   1.404       .  S
S328        H329   1.406       .  S
C333        C334   1.404       .  A
C333        C338   1.422       .  A
C334        C335   1.405       .  A
C334        H343   1.084       .  S
C335        C336   1.422       .  A
C335        S339   1.802       .  S
C336        C337   1.403       .  A
C337        C338   1.404       .  A
C337        H344   1.084       .  S
C338        S340   1.802       .  S
S339        H342   1.407       .  S
S340        H341   1.408       .  S
C345        C346   1.401       .  A
C345        C350   1.417       .  A
C346        C347   1.390   1_554  A
C346        H355   1.086       .  S
C347        C348   1.417       .  A
C347        S351   1.806       .  S
C348        C349   1.409       .  A
C349        C350   1.413   1_556  A
C349        H356   1.085       .  S
C350        S352   1.797       .  S
S351        H354   1.393       .  S
S352        H353   1.406       .  S
C357        C358   1.399       .  A
C357        C362   1.414       .  A
C358        C359   1.398       .  A
C358        H367   1.083   1_655  S
C359        C360   1.420       .  A
C359        S363   1.803       .  S
C360        C361   1.405       .  A
C361        C362   1.399       .  A
C361        H368   1.083       .  S
C362        S364   1.803       .  S
S363        H366   1.408       .  S
S364        H365   1.407   1_655  S
C369        C370   1.403       .  A
C369        C374   1.413       .  A
C370        C371   1.398       .  A
C370        H379   1.085       .  S
C371        C372   1.411       .  A
C371        S375   1.804       .  S
C372        C373   1.404       .  A
C373        C374   1.405       .  A
C373        H380   1.085       .  S
C374        S376   1.801       .  S
S375        H378   1.407       .  S
S376        H377   1.405       .  S
C381        C382   1.404       .  A
C381        C386   1.410       .  A
C382        C383   1.406       .  A
C382        H391   1.084       .  S
C383        C384   1.414       .  A
C383        S387   1.800       .  S
C384        C385   1.402       .  A
C385        C386   1.397       .  A
C385        H392   1.084       .  S
C386        S388   1.805       .  S
S387        H390   1.405       .  S
S388        H389   1.407       .  S
C393        C394   1.404       .  A
C393        C398   1.421       .  A
C394        C395   1.400       .  A
C394        H403   1.083       .  S
C395        C396   1.414   1_565  A
C395        S399   1.798       .  S
C396        C397   1.401   1_545  A
C397        C398   1.401       .  A
C397        H404   1.084   1_565  S
C398        S400   1.803       .  S
S399        H402   1.406   1_565  S
S400        H401   1.408       .  S
C405        C406   1.403       .  A
C405        C410   1.415       .  A
C406        C407   1.397       .  A
C406        H415   1.084       .  S
C407        C408   1.412       .  A
C407        S411   1.804       .  S
C408        C409   1.401       .  A
C409        C410   1.404       .  A
C409        H416   1.082       .  S
C410        S412   1.793       .  S
S411        H414   1.407       .  S
S412        H413   1.406       .  S
C417        C418   1.406       .  A
C417        C422   1.414       .  A
C418        C419   1.410       .  A
C418        H427   1.085       .  S
C419        C420   1.417       .  A
C419        S423   1.795       .  S
C420        C421   1.403       .  A
C421        C422   1.397       .  A
C421        H428   1.086       .  S
C422        S424   1.803       .  S
S423        H426   1.405       .  S
S424        H425   1.405       .  S
C429        C430   1.402       .  A
C429        C434   1.414       .  A
C430        C431   1.398       .  A
C430        H439   1.085       .  S
C431        C432   1.410       .  A
C431        S435   1.804       .  S
C432        C433   1.404       .  A
C433        C434   1.405       .  A
C433        H440   1.085       .  S
C434        S436   1.801       .  S
S435        H438   1.407       .  S
S436        H437   1.405       .  S
C441        C442   1.404       .  A
C441        C446   1.408       .  A
C442        C443   1.408       .  A
C442        H451   1.084       .  S
C443        C444   1.418       .  A
C443        S447   1.806       .  S
C444        C445   1.401       .  A
C445        C446   1.396       .  A
C445        H452   1.084       .  S
C446        S448   1.808       .  S
S447        H450   1.400       .  S
S448        H449   1.407       .  S
C453        C454   1.412       .  A
C453        C458   1.417       .  A
C454        C455   1.400   1_565  A
C454        H463   1.082       .  S
C455        C456   1.411       .  A
C455        S459   1.802       .  S
C456        C457   1.407   1_545  A
C457        C458   1.400       .  A
C457        H464   1.082   1_565  S
C458        S460   1.801       .  S
S459        H462   1.408       .  S
S460        H461   1.405       .  S
C465        C466   1.402       .  A
C465        C470   1.414       .  A
C466        C467   1.395       .  A
C466        H475   1.084       .  S
C467        C468   1.411       .  A
C467        S471   1.805       .  S
C468        C469   1.404       .  A
C469        C470   1.405       .  A
C469        H476   1.082       .  S
C470        S472   1.801       .  S
S471        H474   1.407       .  S
S472        H473   1.404       .  S
C477        C478   1.405       .  A
C477        C482   1.410       .  A
C478        C479   1.398       .  A
C478        H487   1.084       .  S
C479        C480   1.417       .  A
C479        S483   1.801       .  S
C480        C481   1.413       .  A
C481        C482   1.405       .  A
C481        H488   1.083       .  S
C482        S484   1.799       .  S
S483        H486   1.407       .  S
S484        H485   1.406       .  S
C489        C490   1.403       .  A
C489        C494   1.409       .  A
C490        C491   1.400       .  A
C490        H499   1.084       .  S
C491        C492   1.410       .  A
C491        S495   1.803       .  S
C492        C493   1.405       .  A
C493        C494   1.401       .  A
C493        H500   1.070       .  S
C494        S496   1.803       .  S
S495        H498   1.407       .  S
S496        H497   1.405       .  S
C501        C502   1.399       .  A
C501        C506   1.414       .  A
C502        C503   1.402       .  A
C502        H511   1.084       .  S
C503        C504   1.423       .  A
C503        S507   1.803       .  S
C504        C505   1.405       .  A
C505        C506   1.401       .  A
C505        H512   1.084       .  S
C506        S508   1.803       .  S
S507        H510   1.408       .  S
S508        H509   1.405       .  S
C513        C514   1.401       .  A
C513        C518   1.413       .  A
C514        C515   1.401       .  A
C514        H523   1.084       .  S
C515        C516   1.418   1_565  A
C515        S519   1.803       .  S
C516        C517   1.401   1_545  A
C517        C518   1.399       .  A
C517        H524   1.082   1_565  S
C518        S520   1.805       .  S
S519        H522   1.407   1_565  S
S520        H521   1.407       .  S
C525        C526   1.404       .  A
C525        C530   1.412       .  A
C526        C527   1.399       .  A
C526        H535   1.084       .  S
C527        C528   1.410       .  A
C527        S531   1.804       .  S
C528        C529   1.400       .  A
C529        C530   1.404       .  A
C529        H536   1.083       .  S
C530        S532   1.802       .  S
S531        H534   1.407       .  S
S532        H533   1.407       .  S
C537        C538   1.409       .  A
C537        C542   1.413       .  A
C538        C539   1.397       .  A
C538        H547   1.083       .  S
C539        C540   1.413       .  A
C539        S543   1.803       .  S
C540        C541   1.411       .  A
C541        C542   1.405       .  A
C541        H548   1.083       .  S
C542        S544   1.801       .  S
S543        H546   1.408       .  S
S544        H545   1.408       .  S
C549        C550   1.404       .  A
C549        C554   1.418       .  A
C550        C551   1.390   1_556  A
C550        H559   1.084       .  S
C551        C552   1.420       .  A
C551        S555   1.810       .  S
C552        C553   1.408       .  A
C553        C554   1.410   1_554  A
C553        H560   1.083       .  S
C554        S556   1.797       .  S
S555        H558   1.399       .  S
S556        H557   1.399       .  S
C561        C562   1.404       .  A
C561        C566   1.410       .  A
C562        C563   1.405       .  A
C562        H571   1.084       .  S
C563        C564   1.414       .  A
C563        S567   1.801       .  S
C564        C565   1.403       .  A
C565        C566   1.398       .  A
C565        H572   1.085       .  S
C566        S568   1.805       .  S
S567        H570   1.404       .  S
S568        H569   1.407       .  S
C573        C574   1.399       .  A
C573        C578   1.415       .  A
C574        C575   1.403       .  A
C574        H583   1.085       .  S
C575        C576   1.424       .  A
C575        S579   1.802       .  S
C576        C577   1.407       .  A
C577        C578   1.403       .  A
C577        H584   1.084       .  S
C578        S580   1.804       .  S
S579        H582   1.408       .  S
S580        H581   1.406       .  S
C585        C586   1.407       .  A
C585        C590   1.412       .  A
C586        C587   1.412   1_556  A
C586        H595   1.083       .  S
C587        C588   1.419       .  A
C587        S591   1.805       .  S
C588        C589   1.401       .  A
C589        C590   1.393   1_554  A
C589        H596   1.084       .  S
C590        S592   1.802       .  S
S591        H594   1.402       .  S
S592        H593   1.405       .  S
C597        C598   1.404       .  A
C597        C602   1.419       .  A
C598        C599   1.403       .  A
C598        H607   1.083   1_565  S
C599        C600   1.417       .  A
C599        S603   1.805       .  S
C600        C601   1.399       .  A
C601        C602   1.399       .  A
C601        H608   1.084       .  S
C602        S604   1.803       .  S
S603        H606   1.407       .  S
S604        H605   1.408   1_565  S
